data_2D-NiPc-BTDA-COF-opt
_audit_creation_date              0000-00-00
_audit_creation_method            'LanYouShi'
_symmetry_space_group_name_H-M    'P1'
_cell_length_a                    46.4916000
_cell_length_b                    46.4916000
_cell_length_c                    3.4049001
_cell_angle_alpha                 90.0000000
_cell_angle_beta                  90.0000000
_cell_angle_gamma                 90.0000000
loop_
_atom_site_label
_atom_site_type_symbol
_atom_site_fract_x
_atom_site_fract_y
_atom_site_fract_z
_atom_site_U_iso_or_equiv
_atom_site_adp_type
_atom_site_occupancy
        N1          N  0.5047100  0.5396000  0.5000040    0.00000       Uiso       1.00
        N2          N  0.5580200  0.5444670  0.5000040    0.00000       Uiso       1.00
        C3          C  0.5627130  0.5158850  0.5000040    0.00000       Uiso       1.00
        C4          C  0.5897170  0.5028690  0.5000050    0.00000       Uiso       1.00
        C5          C  0.5857130  0.4733400  0.5000040    0.00000       Uiso       1.00
        C6          C  0.5561480  0.4683440  0.5000040    0.00000       Uiso       1.00
        C7          C  0.6092900  0.4540960  0.5000050    0.00000       Uiso       1.00
        C8          C  0.6372090  0.4662470  0.5000070    0.00000       Uiso       1.00
        C9          C  0.6409970  0.4958390  0.5000070    0.00000       Uiso       1.00
       C10          C  0.6174500  0.5149940  0.5000060    0.00000       Uiso       1.00
       O11          O  0.6698360  0.5036580  0.5000090    0.00000       Uiso       1.00
       B12          B  0.6841560  0.4753700  0.5000090    0.00000       Uiso       1.00
       O13          O  0.6634010  0.4513020  0.5000080    0.00000       Uiso       1.00
       N14          N  0.9436620  0.5451940  0.4999790    0.00000       Uiso       1.00
       C15          C  0.9378411  0.5149050  0.4999800    0.00000       Uiso       1.00
       N16          N  0.9586051  0.4942220  0.4999930    0.00000       Uiso       1.00
       C17          C  0.9430299  0.4688060  0.4999980    0.00000       Uiso       1.00
       C18          C  0.9136120  0.4731890  0.4999890    0.00000       Uiso       1.00
       C19          C  0.9101520  0.5026160  0.4999760    0.00000       Uiso       1.00
       C20          C  0.8824460  0.5148620  0.4999640    0.00000       Uiso       1.00
       C21          C  0.8587010  0.4957240  0.4999680    0.00000       Uiso       1.00
       C22          C  0.8622380  0.4660190  0.4999820    0.00000       Uiso       1.00
       C23          C  0.8899330  0.4534500  0.4999920    0.00000       Uiso       1.00
       C24          C  0.9828500  0.4360300  0.5000040    0.00000       Uiso       1.00
       C25          C  0.9824601  0.3799100  0.5000040    0.00000       Uiso       1.00
       C26          C  0.0016800  0.3570400  0.5000040    0.00000       Uiso       1.00
       N27          N  0.9546899  0.4405900  0.5000040    0.00000       Uiso       1.00
       O28          O  0.8298470  0.5036420  0.4999640    0.00000       Uiso       1.00
       B29          B  0.8153470  0.4753870  0.4999790    0.00000       Uiso       1.00
       C30          C  0.7807909  0.4727650  0.4999910    0.00000       Uiso       1.00
       C31          C  0.7646309  0.4468540  0.4999970    0.00000       Uiso       1.00
       C32          C  0.7346081  0.4985770  0.5000030    0.00000       Uiso       1.00
       C33          C  0.7648810  0.4985670  0.4999960    0.00000       Uiso       1.00
       O34          O  0.8359570  0.4512530  0.4999890    0.00000       Uiso       1.00
       H35          H  0.6061690  0.4310390  0.5000050    0.00000       Uiso       1.00
       H36          H  0.6206520  0.5380430  0.5000060    0.00000       Uiso       1.00
       H37          H  0.8919600  0.4295300  0.5000040    0.00000       Uiso       1.00
       H38          H  0.8793760  0.5379250  0.4999520    0.00000       Uiso       1.00
       H39          H  0.7237011  0.5191650  0.5000070    0.00000       Uiso       1.00
       H40          H  0.7758070  0.5191460  0.4999940    0.00000       Uiso       1.00
       N41          N  0.7236100  0.4201940  0.5000080    0.00000       Uiso       1.00
       N42          N  0.7756550  0.4200980  0.4999960    0.00000       Uiso       1.00
       S43          S  0.7495600  0.3943600  0.5000040    0.00000       Uiso       1.00
       C44          C  0.5557500  0.0295800  0.5000040    0.00000       Uiso       1.00
       C45          C  0.5867900  0.0243700  0.5000040    0.00000       Uiso       1.00
       C46          C  0.6369400  0.0305600  0.5000040    0.00000       Uiso       1.00
       C47          C  0.6100900  0.0436400  0.5000040    0.00000       Uiso       1.00
       H48          H  0.6071900  0.0668200  0.5000040    0.00000       Uiso       1.00
       N49          N  0.5409900  0.0033200  0.5000040    0.00000       Uiso       1.00
       N50          N  0.9546800  0.0557800  0.5000040    0.00000       Uiso       1.00
       C51          C  0.9433800  0.0295800  0.5000040    0.00000       Uiso       1.00
       N52          N  0.9581500  0.0033300  0.5000040    0.00000       Uiso       1.00
       C53          C  0.5905200  0.9940999  0.5000040    0.00000       Uiso       1.00
       O54          O  0.6704300  0.9941700  0.5000040    0.00000       Uiso       1.00
       B55          B  0.6850100  0.0213500  0.5000040    0.00000       Uiso       1.00
       O56          O  0.6642800  0.0438400  0.5000040    0.00000       Uiso       1.00
       C57          C  0.9123500  0.0243600  0.5000040    0.00000       Uiso       1.00
       C58          C  0.9086200  0.9940900  0.5000040    0.00000       Uiso       1.00
       C59          C  0.9374500  0.9814800  0.5000040    0.00000       Uiso       1.00
       C60          C  0.8813400  0.9810400  0.5000040    0.00000       Uiso       1.00
       C61          C  0.8584500  0.0002300  0.5000040    0.00000       Uiso       1.00
       C62          C  0.8622001  0.0305500  0.5000040    0.00000       Uiso       1.00
       C63          C  0.8890401  0.0436200  0.5000040    0.00000       Uiso       1.00
       O64          O  0.8348399  0.0438200  0.5000040    0.00000       Uiso       1.00
       B65          B  0.8141301  0.0213200  0.5000040    0.00000       Uiso       1.00
       C66          C  0.7810501  0.0233200  0.5000040    0.00000       Uiso       1.00
       C67          C  0.7650000  0.9981700  0.5000040    0.00000       Uiso       1.00
       C68          C  0.7341200  0.9981700  0.5000040    0.00000       Uiso       1.00
       C69          C  0.7180799  0.0233200  0.5000040    0.00000       Uiso       1.00
       C70          C  0.7336800  0.0503000  0.5000040    0.00000       Uiso       1.00
       O71          O  0.8287000  0.9941500  0.5000040    0.00000       Uiso       1.00
       H72          H  0.6205300  0.9578500  0.5000040    0.00000       Uiso       1.00
       H73          H  0.8786100  0.9578301  0.5000040    0.00000       Uiso       1.00
       H74          H  0.8919300  0.0668100  0.5000040    0.00000       Uiso       1.00
       H75          H  0.7228200  0.9776200  0.5000040    0.00000       Uiso       1.00
       H76          H  0.7763200  0.9776200  0.5000040    0.00000       Uiso       1.00
       N77          N  0.7211400  0.0761900  0.5000040    0.00000       Uiso       1.00
       N78          N  0.7779800  0.0761900  0.5000040    0.00000       Uiso       1.00
       S79          S  0.7495600  0.1019600  0.5000040    0.00000       Uiso       1.00
       C80          C  0.7186769  0.4727830  0.5000060    0.00000       Uiso       1.00
       C81          C  0.7347610  0.4468870  0.5000030    0.00000       Uiso       1.00
       C82          C  0.7654500  0.0503000  0.5000040    0.00000       Uiso       1.00
       N83          N  0.4952900  0.4604000  0.5000040    0.00000       Uiso       1.00
       N84          N  0.4428500  0.4569500  0.5000040    0.00000       Uiso       1.00
       C85          C  0.4382800  0.4851200  0.5000040    0.00000       Uiso       1.00
       C86          C  0.4094500  0.4977300  0.5000040    0.00000       Uiso       1.00
       C87          C  0.4132000  0.5280100  0.5000040    0.00000       Uiso       1.00
       C88          C  0.4442400  0.5332100  0.5000040    0.00000       Uiso       1.00
       C89          C  0.3899100  0.5472800  0.5000040    0.00000       Uiso       1.00
       C90          C  0.3630600  0.5342200  0.5000040    0.00000       Uiso       1.00
       C91          C  0.3593000  0.5039000  0.5000040    0.00000       Uiso       1.00
       C92          C  0.3821800  0.4847000  0.5000040    0.00000       Uiso       1.00
       O93          O  0.3295600  0.4978400  0.5000040    0.00000       Uiso       1.00
       B94          B  0.3149800  0.5250200  0.5000040    0.00000       Uiso       1.00
       O95          O  0.3357300  0.5475000  0.5000040    0.00000       Uiso       1.00
       N96          N  0.0580200  0.4569500  0.5000040    0.00000       Uiso       1.00
       C97          C  0.0625900  0.4851200  0.5000040    0.00000       Uiso       1.00
       N98          N  0.0418600  0.5069700  0.5000040    0.00000       Uiso       1.00
       C99          C  0.0566300  0.5332100  0.5000040    0.00000       Uiso       1.00
      C100          C  0.0876600  0.5280100  0.5000040    0.00000       Uiso       1.00
      C101          C  0.0914100  0.4977400  0.5000040    0.00000       Uiso       1.00
      C102          C  0.1187000  0.4847100  0.5000040    0.00000       Uiso       1.00
      C103          C  0.1415700  0.5039100  0.5000040    0.00000       Uiso       1.00
      C104          C  0.1378100  0.5342300  0.5000040    0.00000       Uiso       1.00
      C105          C  0.1109600  0.5472900  0.5000040    0.00000       Uiso       1.00
      C106          C  0.0171500  0.5639700  0.5000040    0.00000       Uiso       1.00
      C107          C  0.0175400  0.6200900  0.5000040    0.00000       Uiso       1.00
      C108          C  0.9981260  0.6423720  0.4999990    0.00000       Uiso       1.00
      N109          N  0.0453100  0.5594100  0.5000040    0.00000       Uiso       1.00
      O110          O  0.1713100  0.4978600  0.5000040    0.00000       Uiso       1.00
      B111          B  0.1858800  0.5250300  0.5000040    0.00000       Uiso       1.00
      C112          C  0.2189500  0.5270100  0.5000040    0.00000       Uiso       1.00
      C113          C  0.2345500  0.5539800  0.5000040    0.00000       Uiso       1.00
      C114          C  0.2658700  0.5018400  0.5000040    0.00000       Uiso       1.00
      C115          C  0.2349900  0.5018500  0.5000040    0.00000       Uiso       1.00
      O116          O  0.1651400  0.5475200  0.5000040    0.00000       Uiso       1.00
      H117          H  0.3928100  0.5704600  0.5000040    0.00000       Uiso       1.00
      H118          H  0.3794200  0.4615000  0.5000040    0.00000       Uiso       1.00
      H119          H  0.1080400  0.5704700  0.5000040    0.00000       Uiso       1.00
      H120          H  0.1214600  0.4615100  0.5000040    0.00000       Uiso       1.00
      H121          H  0.2771800  0.4813100  0.5000040    0.00000       Uiso       1.00
      H122          H  0.2236700  0.4813200  0.5000040    0.00000       Uiso       1.00
      N123          N  0.2788600  0.5798700  0.5000040    0.00000       Uiso       1.00
      N124          N  0.2220200  0.5798700  0.5000040    0.00000       Uiso       1.00
      S125          S  0.2504400  0.6056400  0.5000040    0.00000       Uiso       1.00
      C126          C  0.4442500  0.9704200  0.5000040    0.00000       Uiso       1.00
      C127          C  0.4132100  0.9756300  0.5000040    0.00000       Uiso       1.00
      C128          C  0.3630600  0.9694400  0.5000040    0.00000       Uiso       1.00
      C129          C  0.3899100  0.9563600  0.5000040    0.00000       Uiso       1.00
      H130          H  0.3928100  0.9331800  0.5000040    0.00000       Uiso       1.00
      N131          N  0.4590100  0.9966800  0.5000040    0.00000       Uiso       1.00
      N132          N  0.0453200  0.9442200  0.5000040    0.00000       Uiso       1.00
      C133          C  0.0566200  0.9704200  0.5000040    0.00000       Uiso       1.00
      N134          N  0.0418500  0.9966700  0.5000040    0.00000       Uiso       1.00
      C135          C  0.4094800  0.0059000  0.5000040    0.00000       Uiso       1.00
      O136          O  0.3295700  0.0058300  0.5000040    0.00000       Uiso       1.00
      B137          B  0.3149900  0.9786500  0.5000040    0.00000       Uiso       1.00
      O138          O  0.3357200  0.9561599  0.5000040    0.00000       Uiso       1.00
      C139          C  0.0876500  0.9756401  0.5000040    0.00000       Uiso       1.00
      C140          C  0.0913800  0.0059100  0.5000040    0.00000       Uiso       1.00
      C141          C  0.0625500  0.0185200  0.5000040    0.00000       Uiso       1.00
      C142          C  0.1186600  0.0189600  0.5000040    0.00000       Uiso       1.00
      C143          C  0.1415500  0.9997700  0.5000040    0.00000       Uiso       1.00
      C144          C  0.1378000  0.9694500  0.5000040    0.00000       Uiso       1.00
      C145          C  0.1109600  0.9563801  0.5000040    0.00000       Uiso       1.00
      O146          O  0.1651600  0.9561800  0.5000040    0.00000       Uiso       1.00
      B147          B  0.1858700  0.9786800  0.5000040    0.00000       Uiso       1.00
      C148          C  0.2189500  0.9766799  0.5000040    0.00000       Uiso       1.00
      C149          C  0.2350000  0.0018300  0.5000040    0.00000       Uiso       1.00
      C150          C  0.2658800  0.0018300  0.5000040    0.00000       Uiso       1.00
      C151          C  0.2819200  0.9766799  0.5000040    0.00000       Uiso       1.00
      C152          C  0.2663200  0.9497000  0.5000040    0.00000       Uiso       1.00
      O153          O  0.1713000  0.0058500  0.5000040    0.00000       Uiso       1.00
      H154          H  0.3794700  0.0421500  0.5000040    0.00000       Uiso       1.00
      H155          H  0.1213900  0.0421700  0.5000040    0.00000       Uiso       1.00
      H156          H  0.1080700  0.9331899  0.5000040    0.00000       Uiso       1.00
      H157          H  0.2771800  0.0223800  0.5000040    0.00000       Uiso       1.00
      H158          H  0.2236800  0.0223800  0.5000040    0.00000       Uiso       1.00
      N159          N  0.2788600  0.9238100  0.5000040    0.00000       Uiso       1.00
      N160          N  0.2220200  0.9238100  0.5000040    0.00000       Uiso       1.00
      S161          S  0.2504400  0.8980400  0.5000040    0.00000       Uiso       1.00
      C162          C  0.2819200  0.5270000  0.5000040    0.00000       Uiso       1.00
      C163          C  0.2663300  0.5539800  0.5000040    0.00000       Uiso       1.00
      C164          C  0.2345500  0.9497000  0.5000040    0.00000       Uiso       1.00
     Ni165         Ni -0.0001350  0.5002510  0.5000000    0.00000       Uiso       1.00
     Ni166         Ni  0.0004100  0.0018100  0.5000040    0.00000       Uiso       1.00
      N167          N  0.4604000  0.5047100  0.5000040    0.00000       Uiso       1.00
      N168          N  0.4569500  0.5571500  0.5000040    0.00000       Uiso       1.00
      C169          C  0.4851200  0.5617200  0.5000040    0.00000       Uiso       1.00
      C170          C  0.4977300  0.5905500  0.5000040    0.00000       Uiso       1.00
      C171          C  0.5268000  0.5861810  0.5000040    0.00000       Uiso       1.00
      C172          C  0.5314420  0.5562130  0.5000040    0.00000       Uiso       1.00
      C173          C  0.5458800  0.6098430  0.5000040    0.00000       Uiso       1.00
      C174          C  0.5333640  0.6376740  0.5000040    0.00000       Uiso       1.00
      C175          C  0.5036470  0.6413000  0.5000040    0.00000       Uiso       1.00
      C176          C  0.4847000  0.6178200  0.5000040    0.00000       Uiso       1.00
      O177          O  0.4954830  0.6699130  0.5000040    0.00000       Uiso       1.00
      B178          B  0.5236000  0.6842480  0.5000040    0.00000       Uiso       1.00
      O179          O  0.5479830  0.6639250  0.5000040    0.00000       Uiso       1.00
      N180          N  0.4569500  0.9419800  0.5000040    0.00000       Uiso       1.00
      C181          C  0.4851200  0.9374100  0.5000040    0.00000       Uiso       1.00
      N182          N  0.5069700  0.9581400  0.5000040    0.00000       Uiso       1.00
      C183          C  0.5332100  0.9433700  0.5000040    0.00000       Uiso       1.00
      C184          C  0.5280100  0.9123400  0.5000040    0.00000       Uiso       1.00
      C185          C  0.4977400  0.9085900  0.5000040    0.00000       Uiso       1.00
      C186          C  0.4847100  0.8813000  0.5000040    0.00000       Uiso       1.00
      C187          C  0.5039100  0.8584300  0.5000040    0.00000       Uiso       1.00
      C188          C  0.5342300  0.8621901  0.5000040    0.00000       Uiso       1.00
      C189          C  0.5472900  0.8890401  0.5000040    0.00000       Uiso       1.00
      C190          C  0.5639700  0.9828500  0.5000040    0.00000       Uiso       1.00
      C191          C  0.6200900  0.9824601  0.5000040    0.00000       Uiso       1.00
      C192          C  0.6429600  0.0016800  0.5000040    0.00000       Uiso       1.00
      N193          N  0.5594100  0.9546899  0.5000040    0.00000       Uiso       1.00
      O194          O  0.4978600  0.8286900  0.5000040    0.00000       Uiso       1.00
      B195          B  0.5250300  0.8141201  0.5000040    0.00000       Uiso       1.00
      C196          C  0.5267690  0.7799790  0.5000040    0.00000       Uiso       1.00
      C197          C  0.5522540  0.7637040  0.5000040    0.00000       Uiso       1.00
      C198          C  0.5001940  0.7343950  0.5000040    0.00000       Uiso       1.00
      C199          C  0.5006340  0.7646040  0.5000040    0.00000       Uiso       1.00
      O200          O  0.5475200  0.8348601  0.5000040    0.00000       Uiso       1.00
      H201          H  0.5689610  0.6069180  0.5000040    0.00000       Uiso       1.00
      H202          H  0.4615000  0.6205800  0.5000040    0.00000       Uiso       1.00
      H203          H  0.5704700  0.8919600  0.5000040    0.00000       Uiso       1.00
      H204          H  0.4615100  0.8785400  0.5000040    0.00000       Uiso       1.00
      H205          H  0.4795100  0.7236691  0.5000040    0.00000       Uiso       1.00
      H206          H  0.4802300  0.7758570  0.5000040    0.00000       Uiso       1.00
      N207          N  0.5782350  0.7224380  0.5000040    0.00000       Uiso       1.00
      N208          N  0.5789500  0.7745570  0.5000040    0.00000       Uiso       1.00
      S209          S  0.6041000  0.7481490  0.5000040    0.00000       Uiso       1.00
      C210          C  0.9692661  0.5564850  0.4999870    0.00000       Uiso       1.00
      C211          C  0.9758240  0.5871270  0.4999920    0.00000       Uiso       1.00
      C212          C  0.9687040  0.6382670  0.4999890    0.00000       Uiso       1.00
      C213          C  0.9567220  0.6105910  0.4999830    0.00000       Uiso       1.00
      H214          H  0.9336640  0.6074650  0.4999700    0.00000       Uiso       1.00
      N215          N  0.9955549  0.5409410  0.4999960    0.00000       Uiso       1.00
      N216          N  0.9442200  0.9546800  0.5000040    0.00000       Uiso       1.00
      C217          C  0.9704200  0.9433800  0.5000040    0.00000       Uiso       1.00
      N218          N  0.9966700  0.9581500  0.5000040    0.00000       Uiso       1.00
      C219          C  0.0059000  0.5905200  0.5000040    0.00000       Uiso       1.00
      O220          O  0.0058300  0.6704300  0.5000040    0.00000       Uiso       1.00
      B221          B  0.9779180  0.6844750  0.4999970    0.00000       Uiso       1.00
      O222          O  0.9536570  0.6641760  0.4999860    0.00000       Uiso       1.00
      C223          C  0.9761470  0.9133370  0.5000040    0.00000       Uiso       1.00
      C224          C  0.0059100  0.9086200  0.5000040    0.00000       Uiso       1.00
      C225          C  0.0185200  0.9374500  0.5000040    0.00000       Uiso       1.00
      C226          C  0.0189600  0.8813400  0.5000040    0.00000       Uiso       1.00
      C227          C  0.9990830  0.8578870  0.5000040    0.00000       Uiso       1.00
      C228          C  0.9693130  0.8620800  0.5000040    0.00000       Uiso       1.00
      C229          C  0.9571030  0.8898630  0.5000040    0.00000       Uiso       1.00
      O230          O  0.9539589  0.8362290  0.5000040    0.00000       Uiso       1.00
      B231          B  0.9777420  0.8154300  0.5000040    0.00000       Uiso       1.00
      C232          C  0.9756231  0.7812300  0.5000060    0.00000       Uiso       1.00
      C233          C  0.0018300  0.7650000  0.5000040    0.00000       Uiso       1.00
      C234          C  0.0018300  0.7341200  0.5000040    0.00000       Uiso       1.00
      C235          C  0.9758680  0.7182260  0.5000000    0.00000       Uiso       1.00
      C236          C  0.9495381  0.7329499  0.4999990    0.00000       Uiso       1.00
      O237          O  0.0058500  0.8287000  0.5000040    0.00000       Uiso       1.00
      H238          H  0.0421500  0.6205300  0.5000040    0.00000       Uiso       1.00
      H239          H  0.0421700  0.8786100  0.5000040    0.00000       Uiso       1.00
      H240          H  0.9340330  0.8929050  0.5000040    0.00000       Uiso       1.00
      H241          H  0.0223800  0.7228200  0.5000040    0.00000       Uiso       1.00
      H242          H  0.0223800  0.7763200  0.5000040    0.00000       Uiso       1.00
      N243          N  0.9246240  0.7207729  0.4999970    0.00000       Uiso       1.00
      N244          N  0.9229060  0.7747950  0.5000020    0.00000       Uiso       1.00
      S245          S  0.8964891  0.7469271  0.4999980    0.00000       Uiso       1.00
      C246          C  0.5258760  0.7183700  0.5000040    0.00000       Uiso       1.00
      C247          C  0.5518300  0.7339930  0.5000040    0.00000       Uiso       1.00
      C248          C  0.9484360  0.7640790  0.5000020    0.00000       Uiso       1.00
      N249          N  0.5403650  0.4947730  0.5000040    0.00000       Uiso       1.00
      N250          N  0.5436920  0.4422120  0.5000040    0.00000       Uiso       1.00
      C251          C  0.5148800  0.4382800  0.5000040    0.00000       Uiso       1.00
      C252          C  0.5022700  0.4094500  0.5000040    0.00000       Uiso       1.00
      C253          C  0.4719900  0.4132000  0.5000040    0.00000       Uiso       1.00
      C254          C  0.4667900  0.4442400  0.5000040    0.00000       Uiso       1.00
      C255          C  0.4527200  0.3899100  0.5000040    0.00000       Uiso       1.00
      C256          C  0.4657800  0.3630600  0.5000040    0.00000       Uiso       1.00
      C257          C  0.4961000  0.3593000  0.5000040    0.00000       Uiso       1.00
      C258          C  0.5153000  0.3821800  0.5000040    0.00000       Uiso       1.00
      O259          O  0.5021600  0.3295600  0.5000040    0.00000       Uiso       1.00
      B260          B  0.4749800  0.3149800  0.5000040    0.00000       Uiso       1.00
      O261          O  0.4525000  0.3357300  0.5000040    0.00000       Uiso       1.00
      N262          N  0.5430500  0.0580200  0.5000040    0.00000       Uiso       1.00
      C263          C  0.5148800  0.0625900  0.5000040    0.00000       Uiso       1.00
      N264          N  0.4930300  0.0418600  0.5000040    0.00000       Uiso       1.00
      C265          C  0.4667900  0.0566300  0.5000040    0.00000       Uiso       1.00
      C266          C  0.4719900  0.0876600  0.5000040    0.00000       Uiso       1.00
      C267          C  0.5022600  0.0914100  0.5000040    0.00000       Uiso       1.00
      C268          C  0.5152900  0.1187000  0.5000040    0.00000       Uiso       1.00
      C269          C  0.4960900  0.1415700  0.5000040    0.00000       Uiso       1.00
      C270          C  0.4657700  0.1378100  0.5000040    0.00000       Uiso       1.00
      C271          C  0.4527100  0.1109600  0.5000040    0.00000       Uiso       1.00
      C272          C  0.4360300  0.0171500  0.5000040    0.00000       Uiso       1.00
      C273          C  0.3799100  0.0175400  0.5000040    0.00000       Uiso       1.00
      C274          C  0.3570400  0.9983200  0.5000040    0.00000       Uiso       1.00
      N275          N  0.4405900  0.0453100  0.5000040    0.00000       Uiso       1.00
      O276          O  0.5021400  0.1713100  0.5000040    0.00000       Uiso       1.00
      B277          B  0.4749700  0.1858800  0.5000040    0.00000       Uiso       1.00
      C278          C  0.4729900  0.2189500  0.5000040    0.00000       Uiso       1.00
      C279          C  0.4460200  0.2345500  0.5000040    0.00000       Uiso       1.00
      C280          C  0.4981600  0.2658700  0.5000040    0.00000       Uiso       1.00
      C281          C  0.4981500  0.2349900  0.5000040    0.00000       Uiso       1.00
      O282          O  0.4524800  0.1651400  0.5000040    0.00000       Uiso       1.00
      H283          H  0.4295400  0.3928100  0.5000040    0.00000       Uiso       1.00
      H284          H  0.5385000  0.3794200  0.5000040    0.00000       Uiso       1.00
      H285          H  0.4295300  0.1080400  0.5000040    0.00000       Uiso       1.00
      H286          H  0.5384900  0.1214600  0.5000040    0.00000       Uiso       1.00
      H287          H  0.5186900  0.2771800  0.5000040    0.00000       Uiso       1.00
      H288          H  0.5186800  0.2236700  0.5000040    0.00000       Uiso       1.00
      N289          N  0.4201300  0.2788600  0.5000040    0.00000       Uiso       1.00
      N290          N  0.4201300  0.2220200  0.5000040    0.00000       Uiso       1.00
      S291          S  0.3943600  0.2504400  0.5000040    0.00000       Uiso       1.00
      C292          C  0.0295800  0.4442500  0.5000040    0.00000       Uiso       1.00
      C293          C  0.0243700  0.4132100  0.5000040    0.00000       Uiso       1.00
      C294          C  0.0305600  0.3630600  0.5000040    0.00000       Uiso       1.00
      C295          C  0.0436400  0.3899100  0.5000040    0.00000       Uiso       1.00
      H296          H  0.0668200  0.3928100  0.5000040    0.00000       Uiso       1.00
      N297          N  0.0033200  0.4590100  0.5000040    0.00000       Uiso       1.00
      N298          N  0.0557800  0.0453200  0.5000040    0.00000       Uiso       1.00
      C299          C  0.0295800  0.0566200  0.5000040    0.00000       Uiso       1.00
      N300          N  0.0033300  0.0418500  0.5000040    0.00000       Uiso       1.00
      C301          C  0.9940999  0.4094800  0.5000040    0.00000       Uiso       1.00
      O302          O  0.9941700  0.3295700  0.5000040    0.00000       Uiso       1.00
      B303          B  0.0213500  0.3149900  0.5000040    0.00000       Uiso       1.00
      O304          O  0.0438400  0.3357200  0.5000040    0.00000       Uiso       1.00
      C305          C  0.0243600  0.0876500  0.5000040    0.00000       Uiso       1.00
      C306          C  0.9940900  0.0913800  0.5000040    0.00000       Uiso       1.00
      C307          C  0.9814800  0.0625500  0.5000040    0.00000       Uiso       1.00
      C308          C  0.9810400  0.1186600  0.5000040    0.00000       Uiso       1.00
      C309          C  0.0002300  0.1415500  0.5000040    0.00000       Uiso       1.00
      C310          C  0.0305500  0.1378000  0.5000040    0.00000       Uiso       1.00
      C311          C  0.0436200  0.1109600  0.5000040    0.00000       Uiso       1.00
      O312          O  0.0438200  0.1651600  0.5000040    0.00000       Uiso       1.00
      B313          B  0.0213200  0.1858700  0.5000040    0.00000       Uiso       1.00
      C314          C  0.0233200  0.2189500  0.5000040    0.00000       Uiso       1.00
      C315          C  0.9981700  0.2350000  0.5000040    0.00000       Uiso       1.00
      C316          C  0.9981700  0.2658800  0.5000040    0.00000       Uiso       1.00
      C317          C  0.0233200  0.2819200  0.5000040    0.00000       Uiso       1.00
      C318          C  0.0503000  0.2663200  0.5000040    0.00000       Uiso       1.00
      O319          O  0.9941500  0.1713000  0.5000040    0.00000       Uiso       1.00
      H320          H  0.9578500  0.3794700  0.5000040    0.00000       Uiso       1.00
      H321          H  0.9578301  0.1213900  0.5000040    0.00000       Uiso       1.00
      H322          H  0.0668100  0.1080700  0.5000040    0.00000       Uiso       1.00
      H323          H  0.9776200  0.2771800  0.5000040    0.00000       Uiso       1.00
      H324          H  0.9776200  0.2236800  0.5000040    0.00000       Uiso       1.00
      N325          N  0.0761900  0.2788600  0.5000040    0.00000       Uiso       1.00
      N326          N  0.0761900  0.2220200  0.5000040    0.00000       Uiso       1.00
      S327          S  0.1019600  0.2504400  0.5000040    0.00000       Uiso       1.00
      C328          C  0.4730000  0.2819200  0.5000040    0.00000       Uiso       1.00
      C329          C  0.4460200  0.2663300  0.5000040    0.00000       Uiso       1.00
      C330          C  0.0503000  0.2345500  0.5000040    0.00000       Uiso       1.00
     Ni331         Ni  0.4981700  0.0004200  0.5000040    0.00000       Uiso       1.00
     Ni332         Ni  0.5002440  0.4998370  0.5000040    0.00000       Uiso       1.00
