data_4PE-1P
_audit_creation_date              0000-00-00
_audit_creation_method            'LanYouShi'
_symmetry_space_group_name_H-M    'P1'
_cell_length_a                    37.5387001
_cell_length_b                    37.5387001
_cell_length_c                    4.5999999
_cell_angle_alpha                 90.0000000
_cell_angle_beta                  90.0000000
_cell_angle_gamma                 120.0000000
loop_
_atom_site_label
_atom_site_type_symbol
_atom_site_fract_x
_atom_site_fract_y
_atom_site_fract_z
_atom_site_U_iso_or_equiv
_atom_site_adp_type
_atom_site_occupancy
        C1          C  0.4811900  0.4826400  0.5035300    0.00000       Uiso       1.00
        C2          C  0.4432300  0.4839800  0.5192400    0.00000       Uiso       1.00
        C3          C  0.4107500  0.4592100  0.3308000    0.00000       Uiso       1.00
        C4          C  0.3749100  0.4602500  0.3418400    0.00000       Uiso       1.00
        C5          C  0.3704700  0.4852800  0.5511400    0.00000       Uiso       1.00
        C6          C  0.4027500  0.5097000  0.7419800    0.00000       Uiso       1.00
        C7          C  0.4385600  0.5086900  0.7258000    0.00000       Uiso       1.00
        H8          H  0.4645200  0.5274000  0.8711401    0.00000       Uiso       1.00
        C9          C  0.4741600  0.4409000  0.4930200    0.00000       Uiso       1.00
       C10          C  0.4394600  0.4095500  0.6347000    0.00000       Uiso       1.00
       C11          C  0.4298200  0.3692900  0.6162700    0.00000       Uiso       1.00
       C12          C  0.4555600  0.3595200  0.4585300    0.00000       Uiso       1.00
       C13          C  0.4903900  0.3904400  0.3175000    0.00000       Uiso       1.00
       C14          C  0.4993700  0.4304000  0.3344100    0.00000       Uiso       1.00
       N15          N  0.3358000  0.4881700  0.5639600    0.00000       Uiso       1.00
       C16          C  0.3011600  0.4578800  0.4866200    0.00000       Uiso       1.00
       C17          C  0.2663700  0.4632100  0.4549100    0.00000       Uiso       1.00
       C18          C  0.2281300  0.4299500  0.3841200    0.00000       Uiso       1.00
       C19          C  0.2712800  0.5019300  0.5079200    0.00000       Uiso       1.00
       N20          N  0.4472200  0.3197600  0.4492000    0.00000       Uiso       1.00
       C21          C  0.4773800  0.3136200  0.4876600    0.00000       Uiso       1.00
       C22          C  0.4729900  0.2739400  0.4534200    0.00000       Uiso       1.00
       C23          C  0.5068100  0.2691600  0.5081400    0.00000       Uiso       1.00
       C24          C  0.4348700  0.2404500  0.3823300    0.00000       Uiso       1.00
       H25          H  0.4149900  0.4400600  0.1680000    0.00000       Uiso       1.00
       H26          H  0.3504600  0.4432200  0.1805300    0.00000       Uiso       1.00
       H27          H  0.3981700  0.5285200  0.9053401    0.00000       Uiso       1.00
       H28          H  0.4199000  0.4175700  0.7643300    0.00000       Uiso       1.00
       H29          H  0.4032800  0.3450300  0.7318500    0.00000       Uiso       1.00
       H30          H  0.5094100  0.3819800  0.1851200    0.00000       Uiso       1.00
       H31          H  0.5267300  0.4544000  0.2256500    0.00000       Uiso       1.00
       H32          H  0.2966600  0.4269300  0.4399000    0.00000       Uiso       1.00
       H33          H  0.2255800  0.4003500  0.3336100    0.00000       Uiso       1.00
       H34          H  0.3020800  0.5265400  0.5626700    0.00000       Uiso       1.00
       H35          H  0.5080300  0.3390800  0.5537900    0.00000       Uiso       1.00
       H36          H  0.5363000  0.2961400  0.5626100    0.00000       Uiso       1.00
       H37          H  0.4099300  0.2463900  0.3329300    0.00000       Uiso       1.00
       C38          C  0.5173600  0.9985500  0.5035300    0.00000       Uiso       1.00
       C39          C  0.5160200  0.9592500  0.5192400    0.00000       Uiso       1.00
       C40          C  0.5407900  0.9515400  0.3308000    0.00000       Uiso       1.00
       C41          C  0.5397500  0.9146600  0.3418400    0.00000       Uiso       1.00
       C42          C  0.5147200  0.8851900  0.5511400    0.00000       Uiso       1.00
       C43          C  0.4903000  0.8930500  0.7419800    0.00000       Uiso       1.00
       C44          C  0.4913100  0.9298700  0.7258000    0.00000       Uiso       1.00
       H45          H  0.4726000  0.9371200  0.8711401    0.00000       Uiso       1.00
       C46          C  0.5591000  0.0332600  0.4930200    0.00000       Uiso       1.00
       C47          C  0.5904500  0.0299100  0.6347000    0.00000       Uiso       1.00
       C48          C  0.6307100  0.0605300  0.6162700    0.00000       Uiso       1.00
       C49          C  0.6404800  0.0960400  0.4585300    0.00000       Uiso       1.00
       C50          C  0.6095600  0.0999500  0.3175000    0.00000       Uiso       1.00
       C51          C  0.5696000  0.0689700  0.3344100    0.00000       Uiso       1.00
       N52          N  0.5118300  0.8476300  0.5639600    0.00000       Uiso       1.00
       C53          C  0.5421200  0.8432800  0.4866200    0.00000       Uiso       1.00
       C54          C  0.5367900  0.8031600  0.4549100    0.00000       Uiso       1.00
       C55          C  0.5700500  0.7981800  0.3841200    0.00000       Uiso       1.00
       C56          C  0.4980700  0.7693500  0.5079200    0.00000       Uiso       1.00
       N57          N  0.6802400  0.1274600  0.4492000    0.00000       Uiso       1.00
       C58          C  0.6863800  0.1637600  0.4876600    0.00000       Uiso       1.00
       C59          C  0.7260600  0.1990500  0.4534200    0.00000       Uiso       1.00
       C60          C  0.7308400  0.2376500  0.5081400    0.00000       Uiso       1.00
       C61          C  0.7595500  0.1944200  0.3823300    0.00000       Uiso       1.00
       H62          H  0.5599400  0.9749300  0.1680000    0.00000       Uiso       1.00
       H63          H  0.5567800  0.9072400  0.1805300    0.00000       Uiso       1.00
       H64          H  0.4714800  0.8696500  0.9053401    0.00000       Uiso       1.00
       H65          H  0.5824300  0.0023300  0.7643300    0.00000       Uiso       1.00
       H66          H  0.6549700  0.0582500  0.7318500    0.00000       Uiso       1.00
       H67          H  0.6180200  0.1274300  0.1851200    0.00000       Uiso       1.00
       H68          H  0.5456000  0.0723300  0.2256500    0.00000       Uiso       1.00
       H69          H  0.5730700  0.8697300  0.4399000    0.00000       Uiso       1.00
       H70          H  0.5996500  0.8252300  0.3336100    0.00000       Uiso       1.00
       H71          H  0.4734600  0.7755400  0.5626700    0.00000       Uiso       1.00
       H72          H  0.6609200  0.1689500  0.5537900    0.00000       Uiso       1.00
       H73          H  0.7038600  0.2401600  0.5626100    0.00000       Uiso       1.00
       H74          H  0.7536100  0.1635400  0.3329300    0.00000       Uiso       1.00
       C75          C  0.0014500  0.5188100  0.5035300    0.00000       Uiso       1.00
       C76          C  0.0407500  0.5567700  0.5192400    0.00000       Uiso       1.00
       C77          C  0.0484600  0.5892500  0.3308000    0.00000       Uiso       1.00
       C78          C  0.0853400  0.6250900  0.3418400    0.00000       Uiso       1.00
       C79          C  0.1148100  0.6295300  0.5511400    0.00000       Uiso       1.00
       C80          C  0.1069500  0.5972500  0.7419800    0.00000       Uiso       1.00
       C81          C  0.0701300  0.5614400  0.7258000    0.00000       Uiso       1.00
       H82          H  0.0628800  0.5354800  0.8711401    0.00000       Uiso       1.00
       C83          C  0.9667400  0.5258400  0.4930200    0.00000       Uiso       1.00
       C84          C  0.9700900  0.5605400  0.6347000    0.00000       Uiso       1.00
       C85          C  0.9394701  0.5701800  0.6162700    0.00000       Uiso       1.00
       C86          C  0.9039600  0.5444400  0.4585300    0.00000       Uiso       1.00
       C87          C  0.9000500  0.5096100  0.3175000    0.00000       Uiso       1.00
       C88          C  0.9310299  0.5006300  0.3344100    0.00000       Uiso       1.00
       N89          N  0.1523700  0.6642000  0.5639600    0.00000       Uiso       1.00
       C90          C  0.1567200  0.6988400  0.4866200    0.00000       Uiso       1.00
       C91          C  0.1968400  0.7336300  0.4549100    0.00000       Uiso       1.00
       C92          C  0.2018200  0.7718700  0.3841200    0.00000       Uiso       1.00
       C93          C  0.2306500  0.7287200  0.5079200    0.00000       Uiso       1.00
       N94          N  0.8725400  0.5527800  0.4492000    0.00000       Uiso       1.00
       C95          C  0.8362400  0.5226200  0.4876600    0.00000       Uiso       1.00
       C96          C  0.8009500  0.5270100  0.4534200    0.00000       Uiso       1.00
       C97          C  0.7623500  0.4931900  0.5081400    0.00000       Uiso       1.00
       C98          C  0.8055800  0.5651300  0.3823300    0.00000       Uiso       1.00
       H99          H  0.0250700  0.5850100  0.1680000    0.00000       Uiso       1.00
      H100          H  0.0927600  0.6495400  0.1805300    0.00000       Uiso       1.00
      H101          H  0.1303500  0.6018300  0.9053401    0.00000       Uiso       1.00
      H102          H  0.9976700  0.5801000  0.7643300    0.00000       Uiso       1.00
      H103          H  0.9417500  0.5967200  0.7318500    0.00000       Uiso       1.00
      H104          H  0.8725700  0.4905900  0.1851200    0.00000       Uiso       1.00
      H105          H  0.9276700  0.4732700  0.2256500    0.00000       Uiso       1.00
      H106          H  0.1302700  0.7033400  0.4399000    0.00000       Uiso       1.00
      H107          H  0.1747700  0.7744200  0.3336100    0.00000       Uiso       1.00
      H108          H  0.2244600  0.6979200  0.5626700    0.00000       Uiso       1.00
      H109          H  0.8310500  0.4919700  0.5537900    0.00000       Uiso       1.00
      H110          H  0.7598400  0.4637000  0.5626100    0.00000       Uiso       1.00
      H111          H  0.8364600  0.5900700  0.3329300    0.00000       Uiso       1.00
      C112          C  0.5188100  0.5173600  0.5035300    0.00000       Uiso       1.00
      C113          C  0.5567700  0.5160200  0.5192400    0.00000       Uiso       1.00
      C114          C  0.5892500  0.5407900  0.3308000    0.00000       Uiso       1.00
      C115          C  0.6250900  0.5397500  0.3418400    0.00000       Uiso       1.00
      C116          C  0.6295300  0.5147200  0.5511400    0.00000       Uiso       1.00
      C117          C  0.5972500  0.4903000  0.7419800    0.00000       Uiso       1.00
      C118          C  0.5614400  0.4913100  0.7258000    0.00000       Uiso       1.00
      H119          H  0.5354800  0.4726000  0.8711401    0.00000       Uiso       1.00
      C120          C  0.5258400  0.5591000  0.4930200    0.00000       Uiso       1.00
      C121          C  0.5605400  0.5904500  0.6347000    0.00000       Uiso       1.00
      C122          C  0.5701800  0.6307100  0.6162700    0.00000       Uiso       1.00
      C123          C  0.5444400  0.6404800  0.4585300    0.00000       Uiso       1.00
      C124          C  0.5096100  0.6095600  0.3175000    0.00000       Uiso       1.00
      C125          C  0.5006300  0.5696000  0.3344100    0.00000       Uiso       1.00
      N126          N  0.6642000  0.5118300  0.5639600    0.00000       Uiso       1.00
      C127          C  0.6988400  0.5421200  0.4866200    0.00000       Uiso       1.00
      C128          C  0.7336300  0.5367900  0.4549100    0.00000       Uiso       1.00
      C129          C  0.7718700  0.5700500  0.3841200    0.00000       Uiso       1.00
      C130          C  0.7287200  0.4980700  0.5079200    0.00000       Uiso       1.00
      N131          N  0.5527800  0.6802400  0.4492000    0.00000       Uiso       1.00
      C132          C  0.5226200  0.6863800  0.4876600    0.00000       Uiso       1.00
      C133          C  0.5270100  0.7260600  0.4534200    0.00000       Uiso       1.00
      C134          C  0.4931900  0.7308400  0.5081400    0.00000       Uiso       1.00
      C135          C  0.5651300  0.7595500  0.3823300    0.00000       Uiso       1.00
      H136          H  0.5850100  0.5599400  0.1680000    0.00000       Uiso       1.00
      H137          H  0.6495400  0.5567800  0.1805300    0.00000       Uiso       1.00
      H138          H  0.6018300  0.4714800  0.9053401    0.00000       Uiso       1.00
      H139          H  0.5801000  0.5824300  0.7643300    0.00000       Uiso       1.00
      H140          H  0.5967200  0.6549700  0.7318500    0.00000       Uiso       1.00
      H141          H  0.4905900  0.6180200  0.1851200    0.00000       Uiso       1.00
      H142          H  0.4732700  0.5456000  0.2256500    0.00000       Uiso       1.00
      H143          H  0.7033400  0.5730700  0.4399000    0.00000       Uiso       1.00
      H144          H  0.7744200  0.5996500  0.3336100    0.00000       Uiso       1.00
      H145          H  0.6979200  0.4734600  0.5626700    0.00000       Uiso       1.00
      H146          H  0.4919700  0.6609200  0.5537900    0.00000       Uiso       1.00
      H147          H  0.4637000  0.7038600  0.5626100    0.00000       Uiso       1.00
      H148          H  0.5900700  0.7536100  0.3329300    0.00000       Uiso       1.00
      C149          C  0.4826400  0.0014500  0.5035300    0.00000       Uiso       1.00
      C150          C  0.4839800  0.0407500  0.5192400    0.00000       Uiso       1.00
      C151          C  0.4592100  0.0484600  0.3308000    0.00000       Uiso       1.00
      C152          C  0.4602500  0.0853400  0.3418400    0.00000       Uiso       1.00
      C153          C  0.4852800  0.1148100  0.5511400    0.00000       Uiso       1.00
      C154          C  0.5097000  0.1069500  0.7419800    0.00000       Uiso       1.00
      C155          C  0.5086900  0.0701300  0.7258000    0.00000       Uiso       1.00
      H156          H  0.5274000  0.0628800  0.8711401    0.00000       Uiso       1.00
      C157          C  0.4409000  0.9667400  0.4930200    0.00000       Uiso       1.00
      C158          C  0.4095500  0.9700900  0.6347000    0.00000       Uiso       1.00
      C159          C  0.3692900  0.9394700  0.6162700    0.00000       Uiso       1.00
      C160          C  0.3595200  0.9039600  0.4585300    0.00000       Uiso       1.00
      C161          C  0.3904400  0.9000500  0.3175000    0.00000       Uiso       1.00
      C162          C  0.4304000  0.9310300  0.3344100    0.00000       Uiso       1.00
      N163          N  0.4881700  0.1523700  0.5639600    0.00000       Uiso       1.00
      C164          C  0.4578800  0.1567200  0.4866200    0.00000       Uiso       1.00
      C165          C  0.4632100  0.1968400  0.4549100    0.00000       Uiso       1.00
      C166          C  0.4299500  0.2018200  0.3841200    0.00000       Uiso       1.00
      C167          C  0.5019300  0.2306500  0.5079200    0.00000       Uiso       1.00
      N168          N  0.3197600  0.8725400  0.4492000    0.00000       Uiso       1.00
      C169          C  0.3136200  0.8362400  0.4876600    0.00000       Uiso       1.00
      C170          C  0.2739400  0.8009500  0.4534200    0.00000       Uiso       1.00
      C171          C  0.2691600  0.7623500  0.5081400    0.00000       Uiso       1.00
      C172          C  0.2404500  0.8055800  0.3823300    0.00000       Uiso       1.00
      H173          H  0.4400600  0.0250700  0.1680000    0.00000       Uiso       1.00
      H174          H  0.4432200  0.0927600  0.1805300    0.00000       Uiso       1.00
      H175          H  0.5285200  0.1303500  0.9053401    0.00000       Uiso       1.00
      H176          H  0.4175700  0.9976699  0.7643300    0.00000       Uiso       1.00
      H177          H  0.3450300  0.9417500  0.7318500    0.00000       Uiso       1.00
      H178          H  0.3819800  0.8725700  0.1851200    0.00000       Uiso       1.00
      H179          H  0.4544000  0.9276700  0.2256500    0.00000       Uiso       1.00
      H180          H  0.4269300  0.1302700  0.4399000    0.00000       Uiso       1.00
      H181          H  0.4003500  0.1747700  0.3336100    0.00000       Uiso       1.00
      H182          H  0.5265400  0.2244600  0.5626700    0.00000       Uiso       1.00
      H183          H  0.3390800  0.8310500  0.5537900    0.00000       Uiso       1.00
      H184          H  0.2961400  0.7598400  0.5626100    0.00000       Uiso       1.00
      H185          H  0.2463900  0.8364600  0.3329300    0.00000       Uiso       1.00
      C186          C  0.9985500  0.4811900  0.5035300    0.00000       Uiso       1.00
      C187          C  0.9592500  0.4432300  0.5192400    0.00000       Uiso       1.00
      C188          C  0.9515400  0.4107500  0.3308000    0.00000       Uiso       1.00
      C189          C  0.9146600  0.3749100  0.3418400    0.00000       Uiso       1.00
      C190          C  0.8851900  0.3704700  0.5511400    0.00000       Uiso       1.00
      C191          C  0.8930500  0.4027500  0.7419800    0.00000       Uiso       1.00
      C192          C  0.9298700  0.4385600  0.7258000    0.00000       Uiso       1.00
      H193          H  0.9371200  0.4645200  0.8711401    0.00000       Uiso       1.00
      C194          C  0.0332600  0.4741600  0.4930200    0.00000       Uiso       1.00
      C195          C  0.0299100  0.4394600  0.6347000    0.00000       Uiso       1.00
      C196          C  0.0605300  0.4298200  0.6162700    0.00000       Uiso       1.00
      C197          C  0.0960400  0.4555600  0.4585300    0.00000       Uiso       1.00
      C198          C  0.0999500  0.4903900  0.3175000    0.00000       Uiso       1.00
      C199          C  0.0689700  0.4993700  0.3344100    0.00000       Uiso       1.00
      N200          N  0.8476300  0.3358000  0.5639600    0.00000       Uiso       1.00
      C201          C  0.8432800  0.3011600  0.4866200    0.00000       Uiso       1.00
      C202          C  0.8031600  0.2663700  0.4549100    0.00000       Uiso       1.00
      C203          C  0.7981800  0.2281300  0.3841200    0.00000       Uiso       1.00
      C204          C  0.7693500  0.2712800  0.5079200    0.00000       Uiso       1.00
      N205          N  0.1274600  0.4472200  0.4492000    0.00000       Uiso       1.00
      C206          C  0.1637600  0.4773800  0.4876600    0.00000       Uiso       1.00
      C207          C  0.1990500  0.4729900  0.4534200    0.00000       Uiso       1.00
      C208          C  0.2376500  0.5068100  0.5081400    0.00000       Uiso       1.00
      C209          C  0.1944200  0.4348700  0.3823300    0.00000       Uiso       1.00
      H210          H  0.9749300  0.4149900  0.1680000    0.00000       Uiso       1.00
      H211          H  0.9072400  0.3504600  0.1805300    0.00000       Uiso       1.00
      H212          H  0.8696500  0.3981700  0.9053401    0.00000       Uiso       1.00
      H213          H  0.0023300  0.4199000  0.7643300    0.00000       Uiso       1.00
      H214          H  0.0582500  0.4032800  0.7318500    0.00000       Uiso       1.00
      H215          H  0.1274300  0.5094100  0.1851200    0.00000       Uiso       1.00
      H216          H  0.0723300  0.5267300  0.2256500    0.00000       Uiso       1.00
      H217          H  0.8697300  0.2966600  0.4399000    0.00000       Uiso       1.00
      H218          H  0.8252300  0.2255800  0.3336100    0.00000       Uiso       1.00
      H219          H  0.7755400  0.3020800  0.5626700    0.00000       Uiso       1.00
      H220          H  0.1689500  0.5080300  0.5537900    0.00000       Uiso       1.00
      H221          H  0.2401600  0.5363000  0.5626100    0.00000       Uiso       1.00
      H222          H  0.1635400  0.4099300  0.3329300    0.00000       Uiso       1.00
