data_DaTP
_audit_creation_date              0000-00-00
_audit_creation_method            'LanYouShi'
_symmetry_space_group_name_H-M    'P1'
_cell_length_a                    30.7521992
_cell_length_b                    30.7521992
_cell_length_c                    3.6326001
_cell_angle_alpha                 90.0000000
_cell_angle_beta                  90.0000000
_cell_angle_gamma                 120.0000000
loop_
_atom_site_label
_atom_site_type_symbol
_atom_site_fract_x
_atom_site_fract_y
_atom_site_fract_z
_atom_site_U_iso_or_equiv
_atom_site_adp_type
_atom_site_occupancy
        C1          C  0.8956251  0.4301690  0.5000070    0.00000       Uiso       1.00
        C2          C  0.3960010  0.9298410  0.5000070    0.00000       Uiso       1.00
        C3          C  0.5698320  0.4654560  0.5000070    0.00000       Uiso       1.00
        C4          C  0.0701600  0.4661610  0.5000070    0.00000       Uiso       1.00
        C5          C  0.5345450  0.1043760  0.5000070    0.00000       Uiso       1.00
        C6          C  0.5338400  0.6040000  0.5000070    0.00000       Uiso       1.00
        C7          C  0.1043760  0.5698320  0.5000070    0.00000       Uiso       1.00
        C8          C  0.6040000  0.0701600  0.5000070    0.00000       Uiso       1.00
        C9          C  0.4301690  0.5345450  0.5000070    0.00000       Uiso       1.00
       C10          C  0.9298410  0.5338400  0.5000070    0.00000       Uiso       1.00
       C11          C  0.4654560  0.8956250  0.5000070    0.00000       Uiso       1.00
       C12          C  0.4661610  0.3960010  0.5000070    0.00000       Uiso       1.00
       C13          C  0.9477690  0.4648060  0.5000070    0.00000       Uiso       1.00
       C14          C  0.4478400  0.9650370  0.5000070    0.00000       Uiso       1.00
       C15          C  0.5351950  0.4829630  0.5000070    0.00000       Uiso       1.00
       C16          C  0.0349640  0.4828040  0.5000070    0.00000       Uiso       1.00
       C17          C  0.5170380  0.0522320  0.5000070    0.00000       Uiso       1.00
       C18          C  0.5171970  0.5521610  0.5000070    0.00000       Uiso       1.00
       C19          C  0.0522320  0.5351950  0.5000070    0.00000       Uiso       1.00
       C20          C  0.5521610  0.0349640  0.5000070    0.00000       Uiso       1.00
       C21          C  0.4648060  0.5170380  0.5000070    0.00000       Uiso       1.00
       C22          C  0.9650370  0.5171970  0.5000070    0.00000       Uiso       1.00
       C23          C  0.4829630  0.9477690  0.5000070    0.00000       Uiso       1.00
       C24          C  0.4828040  0.4478400  0.5000070    0.00000       Uiso       1.00
       H25          H  0.8831770  0.3924440  0.5000070    0.00000       Uiso       1.00
       H26          H  0.3701520  0.9415010  0.5000070    0.00000       Uiso       1.00
       H27          H  0.6075570  0.4907320  0.5000070    0.00000       Uiso       1.00
       H28          H  0.0585000  0.4286520  0.5000070    0.00000       Uiso       1.00
       H29          H  0.5092690  0.1168250  0.5000070    0.00000       Uiso       1.00
       H30          H  0.5713500  0.6298490  0.5000070    0.00000       Uiso       1.00
       H31          H  0.1168250  0.6075570  0.5000070    0.00000       Uiso       1.00
       H32          H  0.6298490  0.0585000  0.5000070    0.00000       Uiso       1.00
       H33          H  0.3924440  0.5092690  0.5000070    0.00000       Uiso       1.00
       H34          H  0.9415010  0.5713500  0.5000070    0.00000       Uiso       1.00
       H35          H  0.4907320  0.8831770  0.5000070    0.00000       Uiso       1.00
       H36          H  0.4286520  0.3701520  0.5000070    0.00000       Uiso       1.00
       N37          N  0.5983440  0.1888700  0.5000070    0.00000       Uiso       1.00
       N38          N  0.8111310  0.4094740  0.5000070    0.00000       Uiso       1.00
       N39          N  0.5905270  0.4016570  0.5000070    0.00000       Uiso       1.00
       N40          N  0.4016570  0.8111310  0.5000070    0.00000       Uiso       1.00
       N41          N  0.1888700  0.5905270  0.5000070    0.00000       Uiso       1.00
       N42          N  0.4094740  0.5983440  0.5000070    0.00000       Uiso       1.00
       C43          C  0.8601250  0.4464130  0.5000070    0.00000       Uiso       1.00
       C44          C  0.3793550  0.8781590  0.5000070    0.00000       Uiso       1.00
       C45          C  0.5535880  0.4137120  0.5000070    0.00000       Uiso       1.00
       C46          C  0.1218420  0.5011970  0.5000070    0.00000       Uiso       1.00
       C47          C  0.5862890  0.1398760  0.5000070    0.00000       Uiso       1.00
       C48          C  0.4988040  0.6206460  0.5000070    0.00000       Uiso       1.00
       C49          C  0.1398760  0.5535880  0.5000070    0.00000       Uiso       1.00
       C50          C  0.6206460  0.1218420  0.5000070    0.00000       Uiso       1.00
       C51          C  0.4464130  0.5862890  0.5000070    0.00000       Uiso       1.00
       C52          C  0.8781590  0.4988040  0.5000070    0.00000       Uiso       1.00
       C53          C  0.4137120  0.8601250  0.5000070    0.00000       Uiso       1.00
       C54          C  0.5011970  0.3793550  0.5000070    0.00000       Uiso       1.00
       C55          C  0.9829471  0.4480740  0.5000070    0.00000       Uiso       1.00
       C56          C  0.5519270  0.5348730  0.5000070    0.00000       Uiso       1.00
       C57          C  0.4651280  0.0170540  0.5000070    0.00000       Uiso       1.00
       C58          C  0.0170540  0.5519270  0.5000070    0.00000       Uiso       1.00
       C59          C  0.4480740  0.4651280  0.5000070    0.00000       Uiso       1.00
       C60          C  0.5348730  0.9829470  0.5000070    0.00000       Uiso       1.00
       H61          H  0.9705460  0.4103630  0.5000070    0.00000       Uiso       1.00
       H62          H  0.5896380  0.5601840  0.5000070    0.00000       Uiso       1.00
       H63          H  0.4398180  0.0294550  0.5000070    0.00000       Uiso       1.00
       H64          H  0.0294550  0.5896380  0.5000070    0.00000       Uiso       1.00
       H65          H  0.4103630  0.4398180  0.5000070    0.00000       Uiso       1.00
       H66          H  0.5601840  0.9705460  0.5000070    0.00000       Uiso       1.00
       C67          C  0.7689820  0.4133420  0.5000070    0.00000       Uiso       1.00
       C68          C  0.5866590  0.3556390  0.5000070    0.00000       Uiso       1.00
       C69          C  0.6443620  0.2310200  0.5000070    0.00000       Uiso       1.00
       C70          C  0.2310200  0.5866590  0.5000070    0.00000       Uiso       1.00
       C71          C  0.4133420  0.6443620  0.5000070    0.00000       Uiso       1.00
       C72          C  0.3556390  0.7689820  0.5000070    0.00000       Uiso       1.00
       C73          C  0.2815680  0.6270880  0.5000070    0.00000       Uiso       1.00
       C74          C  0.3729130  0.6544810  0.5000070    0.00000       Uiso       1.00
       C75          C  0.3455200  0.7184330  0.5000070    0.00000       Uiso       1.00
       C76          C  0.7184330  0.3729130  0.5000070    0.00000       Uiso       1.00
       C77          C  0.6270880  0.3455200  0.5000070    0.00000       Uiso       1.00
       C78          C  0.6544810  0.2815680  0.5000070    0.00000       Uiso       1.00
       C79          C  0.3215080  0.6162050  0.5000070    0.00000       Uiso       1.00
       C80          C  0.3837960  0.7053041  0.5000070    0.00000       Uiso       1.00
       C81          C  0.2946970  0.6784930  0.5000070    0.00000       Uiso       1.00
       C82          C  0.6784930  0.3837960  0.5000070    0.00000       Uiso       1.00
       C83          C  0.6162050  0.2946970  0.5000070    0.00000       Uiso       1.00
       C84          C  0.7053040  0.3215080  0.5000070    0.00000       Uiso       1.00
       O85          O  0.2602340  0.6891240  0.5000070    0.00000       Uiso       1.00
       O86          O  0.3108770  0.5711110  0.5000070    0.00000       Uiso       1.00
       O87          O  0.4288910  0.7397670  0.5000070    0.00000       Uiso       1.00
       O88          O  0.7397670  0.3108770  0.5000070    0.00000       Uiso       1.00
       O89          O  0.6891240  0.4288910  0.5000070    0.00000       Uiso       1.00
       O90          O  0.5711110  0.2602340  0.5000070    0.00000       Uiso       1.00
       H91          H  0.5702310  0.1944980  0.5000070    0.00000       Uiso       1.00
       H92          H  0.7745650  0.4489260  0.5000070    0.00000       Uiso       1.00
       H93          H  0.3415590  0.8539450  0.5000070    0.00000       Uiso       1.00
       H94          H  0.8055030  0.3757330  0.5000070    0.00000       Uiso       1.00
       H95          H  0.5510760  0.3256390  0.5000070    0.00000       Uiso       1.00
       H96          H  0.1460560  0.4876150  0.5000070    0.00000       Uiso       1.00
       H97          H  0.6242690  0.4297710  0.5000070    0.00000       Uiso       1.00
       H98          H  0.6743620  0.2254360  0.5000070    0.00000       Uiso       1.00
       H99          H  0.5123860  0.6584430  0.5000070    0.00000       Uiso       1.00
      H100          H  0.4297710  0.8055030  0.5000070    0.00000       Uiso       1.00
      H101          H  0.2254360  0.5510760  0.5000070    0.00000       Uiso       1.00
      H102          H  0.6584430  0.1460560  0.5000070    0.00000       Uiso       1.00
      H103          H  0.1944980  0.6242690  0.5000070    0.00000       Uiso       1.00
      H104          H  0.4489260  0.6743620  0.5000070    0.00000       Uiso       1.00
      H105          H  0.8539450  0.5123860  0.5000070    0.00000       Uiso       1.00
      H106          H  0.3757330  0.5702310  0.5000070    0.00000       Uiso       1.00
      H107          H  0.3256390  0.7745650  0.5000070    0.00000       Uiso       1.00
      H108          H  0.4876150  0.3415590  0.5000070    0.00000       Uiso       1.00
