data_DBA-COF_1
_audit_creation_date              0000-00-00
_audit_creation_method            'LanYouShi'
_symmetry_space_group_name_H-M    'P1'
_cell_length_a                    35.5829010
_cell_length_b                    35.5829010
_cell_length_c                    3.4000001
_cell_angle_alpha                 90.0000000
_cell_angle_beta                  90.0000000
_cell_angle_gamma                 120.0000000
loop_
_atom_site_label
_atom_site_type_symbol
_atom_site_fract_x
_atom_site_fract_y
_atom_site_fract_z
_atom_site_U_iso_or_equiv
_atom_site_adp_type
_atom_site_occupancy
        O1          O  0.4037810  0.5269560  0.5000000    0.00000       Uiso       1.00
        O2          O  0.4730440  0.5962190  0.5000000    0.00000       Uiso       1.00
        C3          C  0.3982600  0.5629500  0.5000000    0.00000       Uiso       1.00
        C4          C  0.4370500  0.6017400  0.5000000    0.00000       Uiso       1.00
        C5          C  0.3584410  0.5618720  0.5000000    0.00000       Uiso       1.00
        C6          C  0.4381280  0.6415590  0.5000000    0.00000       Uiso       1.00
        C7          C  0.3584210  0.6015410  0.5000000    0.00000       Uiso       1.00
        C8          C  0.3984590  0.6415790  0.5000000    0.00000       Uiso       1.00
        C9          C  0.3173550  0.6007320  0.5000000    0.00000       Uiso       1.00
       C10          C  0.3992680  0.6826450  0.5000000    0.00000       Uiso       1.00
       B11          B  0.4514220  0.5485780  0.5000000    0.00000       Uiso       1.00
       C12          C  0.5229390  0.4770610  0.5000000    0.00000       Uiso       1.00
       C13          C  0.4773160  0.4545940  0.5000000    0.00000       Uiso       1.00
       C14          C  0.5454060  0.5226840  0.5000000    0.00000       Uiso       1.00
       H15          H  0.4592750  0.4193950  0.5000000    0.00000       Uiso       1.00
       H16          H  0.5806050  0.5407250  0.5000000    0.00000       Uiso       1.00
       H17          H  0.3282780  0.5309700  0.5000000    0.00000       Uiso       1.00
       H18          H  0.4690300  0.6717220  0.5000000    0.00000       Uiso       1.00
       O19          O  0.4730440  0.8768250  0.5000000    0.00000       Uiso       1.00
       O20          O  0.4037810  0.8768250  0.5000000    0.00000       Uiso       1.00
       C21          C  0.4370500  0.8353090  0.5000000    0.00000       Uiso       1.00
       C22          C  0.3982600  0.8353090  0.5000000    0.00000       Uiso       1.00
       C23          C  0.4381280  0.7965690  0.5000000    0.00000       Uiso       1.00
       C24          C  0.3584410  0.7965690  0.5000000    0.00000       Uiso       1.00
       C25          C  0.3984590  0.7568810  0.5000000    0.00000       Uiso       1.00
       C26          C  0.3584210  0.7568810  0.5000000    0.00000       Uiso       1.00
       C27          C  0.3992680  0.7166230  0.5000000    0.00000       Uiso       1.00
       C28          C  0.3173550  0.7166230  0.5000000    0.00000       Uiso       1.00
       B29          B  0.4514220  0.9028450  0.5000000    0.00000       Uiso       1.00
       H30          H  0.4690300  0.7973080  0.5000000    0.00000       Uiso       1.00
       H31          H  0.3282780  0.7973080  0.5000000    0.00000       Uiso       1.00
       O32          O  0.1231750  0.5962190  0.5000000    0.00000       Uiso       1.00
       O33          O  0.1231750  0.5269560  0.5000000    0.00000       Uiso       1.00
       C34          C  0.1646910  0.6017400  0.5000000    0.00000       Uiso       1.00
       C35          C  0.1646910  0.5629500  0.5000000    0.00000       Uiso       1.00
       C36          C  0.2034310  0.6415590  0.5000000    0.00000       Uiso       1.00
       C37          C  0.2034310  0.5618720  0.5000000    0.00000       Uiso       1.00
       C38          C  0.2431190  0.6415790  0.5000000    0.00000       Uiso       1.00
       C39          C  0.2431190  0.6015410  0.5000000    0.00000       Uiso       1.00
       C40          C  0.2833770  0.6826450  0.5000000    0.00000       Uiso       1.00
       C41          C  0.2833770  0.6007320  0.5000000    0.00000       Uiso       1.00
       B42          B  0.0971550  0.5485780  0.5000000    0.00000       Uiso       1.00
       H43          H  0.2026920  0.6717220  0.5000000    0.00000       Uiso       1.00
       H44          H  0.2026920  0.5309700  0.5000000    0.00000       Uiso       1.00
       O45          O  0.5962190  0.4730440  0.5000000    0.00000       Uiso       1.00
       O46          O  0.5269560  0.4037810  0.5000000    0.00000       Uiso       1.00
       C47          C  0.6017400  0.4370500  0.5000000    0.00000       Uiso       1.00
       C48          C  0.5629500  0.3982600  0.5000000    0.00000       Uiso       1.00
       C49          C  0.6415590  0.4381280  0.5000000    0.00000       Uiso       1.00
       C50          C  0.5618720  0.3584410  0.5000000    0.00000       Uiso       1.00
       C51          C  0.6415790  0.3984590  0.5000000    0.00000       Uiso       1.00
       C52          C  0.6015410  0.3584210  0.5000000    0.00000       Uiso       1.00
       C53          C  0.6826450  0.3992680  0.5000000    0.00000       Uiso       1.00
       C54          C  0.6007320  0.3173550  0.5000000    0.00000       Uiso       1.00
       B55          B  0.5485770  0.4514220  0.5000000    0.00000       Uiso       1.00
       C56          C  0.4770610  0.5229390  0.5000000    0.00000       Uiso       1.00
       C57          C  0.5226840  0.5454060  0.5000000    0.00000       Uiso       1.00
       C58          C  0.4545940  0.4773160  0.5000000    0.00000       Uiso       1.00
       H59          H  0.5407250  0.5806050  0.5000000    0.00000       Uiso       1.00
       H60          H  0.4193950  0.4592750  0.5000000    0.00000       Uiso       1.00
       H61          H  0.6717220  0.4690300  0.5000000    0.00000       Uiso       1.00
       H62          H  0.5309700  0.3282780  0.5000000    0.00000       Uiso       1.00
       O63          O  0.5269560  0.1231750  0.5000000    0.00000       Uiso       1.00
       O64          O  0.5962190  0.1231750  0.5000000    0.00000       Uiso       1.00
       C65          C  0.5629500  0.1646910  0.5000000    0.00000       Uiso       1.00
       C66          C  0.6017400  0.1646910  0.5000000    0.00000       Uiso       1.00
       C67          C  0.5618720  0.2034310  0.5000000    0.00000       Uiso       1.00
       C68          C  0.6415590  0.2034310  0.5000000    0.00000       Uiso       1.00
       C69          C  0.6015410  0.2431190  0.5000000    0.00000       Uiso       1.00
       C70          C  0.6415790  0.2431190  0.5000000    0.00000       Uiso       1.00
       C71          C  0.6007320  0.2833770  0.5000000    0.00000       Uiso       1.00
       C72          C  0.6826450  0.2833770  0.5000000    0.00000       Uiso       1.00
       B73          B  0.5485780  0.0971550  0.5000000    0.00000       Uiso       1.00
       H74          H  0.5309700  0.2026920  0.5000000    0.00000       Uiso       1.00
       H75          H  0.6717220  0.2026920  0.5000000    0.00000       Uiso       1.00
       O76          O  0.8768250  0.4037810  0.5000000    0.00000       Uiso       1.00
       O77          O  0.8768250  0.4730440  0.5000000    0.00000       Uiso       1.00
       C78          C  0.8353090  0.3982600  0.5000000    0.00000       Uiso       1.00
       C79          C  0.8353090  0.4370500  0.5000000    0.00000       Uiso       1.00
       C80          C  0.7965690  0.3584410  0.5000000    0.00000       Uiso       1.00
       C81          C  0.7965690  0.4381280  0.5000000    0.00000       Uiso       1.00
       C82          C  0.7568810  0.3584210  0.5000000    0.00000       Uiso       1.00
       C83          C  0.7568810  0.3984590  0.5000000    0.00000       Uiso       1.00
       C84          C  0.7166230  0.3173550  0.5000000    0.00000       Uiso       1.00
       C85          C  0.7166230  0.3992680  0.5000000    0.00000       Uiso       1.00
       B86          B  0.9028450  0.4514220  0.5000000    0.00000       Uiso       1.00
       H87          H  0.7973080  0.3282780  0.5000000    0.00000       Uiso       1.00
       H88          H  0.7973080  0.4690300  0.5000000    0.00000       Uiso       1.00
       C89          C  0.5229390  0.0458780  0.5000000    0.00000       Uiso       1.00
       C90          C  0.5454060  0.0227220  0.5000000    0.00000       Uiso       1.00
       C91          C  0.4773160  0.0227220  0.5000000    0.00000       Uiso       1.00
       H92          H  0.5806050  0.0398800  0.5000000    0.00000       Uiso       1.00
       H93          H  0.4592750  0.0398800  0.5000000    0.00000       Uiso       1.00
       C94          C  0.9541220  0.4770610  0.5000000    0.00000       Uiso       1.00
       C95          C  0.9772780  0.5226840  0.5000000    0.00000       Uiso       1.00
       C96          C  0.9772780  0.4545940  0.5000000    0.00000       Uiso       1.00
       H97          H  0.9601200  0.5407250  0.5000000    0.00000       Uiso       1.00
       H98          H  0.9601200  0.4193950  0.5000000    0.00000       Uiso       1.00
       C99          C  0.4770610  0.9541220  0.5000000    0.00000       Uiso       1.00
      C100          C  0.4545940  0.9772780  0.5000000    0.00000       Uiso       1.00
      C101          C  0.5226840  0.9772780  0.5000000    0.00000       Uiso       1.00
      H102          H  0.4193950  0.9601200  0.5000000    0.00000       Uiso       1.00
      H103          H  0.5407250  0.9601200  0.5000000    0.00000       Uiso       1.00
      C104          C  0.0458780  0.5229390  0.5000000    0.00000       Uiso       1.00
      C105          C  0.0227220  0.4773160  0.5000000    0.00000       Uiso       1.00
      C106          C  0.0227220  0.5454060  0.5000000    0.00000       Uiso       1.00
      H107          H  0.0398800  0.4592750  0.5000000    0.00000       Uiso       1.00
      H108          H  0.0398800  0.5806050  0.5000000    0.00000       Uiso       1.00
