data_DCuPc-APyrDI-COF
_audit_creation_date              0000-00-00
_audit_creation_method            'LanYouShi'
_symmetry_space_group_name_H-M    'P1'
_cell_length_a                    35.5555000
_cell_length_b                    35.5555000
_cell_length_c                    3.5346999
_cell_angle_alpha                 90.0000000
_cell_angle_beta                  90.0000000
_cell_angle_gamma                 90.0000000
loop_
_atom_site_label
_atom_site_type_symbol
_atom_site_fract_x
_atom_site_fract_y
_atom_site_fract_z
_atom_site_U_iso_or_equiv
_atom_site_adp_type
_atom_site_occupancy
        C1          C  0.4802510  0.6837450  0.4999970    0.00000       Uiso       1.00
        C2          C  0.5404350  0.6500570  0.4999970    0.00000       Uiso       1.00
        C3          C  0.5196570  0.6162260  0.4999970    0.00000       Uiso       1.00
        C4          C  0.5309770  0.5787620  0.4999970    0.00000       Uiso       1.00
        C5          C  0.5197500  0.3162560  0.4999970    0.00000       Uiso       1.00
        C6          C  0.4595660  0.3499440  0.4999970    0.00000       Uiso       1.00
        C7          C  0.4803440  0.3837750  0.4999970    0.00000       Uiso       1.00
        C8          C  0.4690240  0.4212390  0.4999970    0.00000       Uiso       1.00
        C9          C  0.3162560  0.4802510  0.4999970    0.00000       Uiso       1.00
       C10          C  0.3499440  0.5404350  0.4999970    0.00000       Uiso       1.00
       C11          C  0.3837750  0.5196570  0.4999970    0.00000       Uiso       1.00
       C12          C  0.4212390  0.5309770  0.4999970    0.00000       Uiso       1.00
       C13          C  0.6837450  0.5197500  0.4999970    0.00000       Uiso       1.00
       C14          C  0.6500570  0.4595660  0.4999970    0.00000       Uiso       1.00
       C15          C  0.6162260  0.4803440  0.4999970    0.00000       Uiso       1.00
       C16          C  0.5787620  0.4690240  0.4999970    0.00000       Uiso       1.00
       C17          C  0.5197500  0.6837450  0.4999970    0.00000       Uiso       1.00
       C18          C  0.4595660  0.6500570  0.4999970    0.00000       Uiso       1.00
       C19          C  0.4803440  0.6162260  0.4999970    0.00000       Uiso       1.00
       C20          C  0.4690240  0.5787620  0.4999970    0.00000       Uiso       1.00
       C21          C  0.4802510  0.3162560  0.4999970    0.00000       Uiso       1.00
       C22          C  0.5404350  0.3499440  0.4999970    0.00000       Uiso       1.00
       C23          C  0.5196570  0.3837750  0.4999970    0.00000       Uiso       1.00
       C24          C  0.5309770  0.4212390  0.4999970    0.00000       Uiso       1.00
       C25          C  0.6837450  0.4802510  0.4999970    0.00000       Uiso       1.00
       C26          C  0.6500570  0.5404350  0.4999970    0.00000       Uiso       1.00
       C27          C  0.6162260  0.5196570  0.4999970    0.00000       Uiso       1.00
       C28          C  0.5787620  0.5309770  0.4999970    0.00000       Uiso       1.00
       C29          C  0.3162560  0.5197500  0.4999970    0.00000       Uiso       1.00
       C30          C  0.3499440  0.4595660  0.4999970    0.00000       Uiso       1.00
       C31          C  0.3837750  0.4803440  0.4999970    0.00000       Uiso       1.00
       C32          C  0.4212390  0.4690240  0.4999970    0.00000       Uiso       1.00
       O33          O  0.5332140  0.7191260  0.4999970    0.00000       Uiso       1.00
       O34          O  0.4667870  0.2808750  0.4999970    0.00000       Uiso       1.00
       O35          O  0.2808750  0.5332140  0.4999970    0.00000       Uiso       1.00
       O36          O  0.7191260  0.4667870  0.4999970    0.00000       Uiso       1.00
       O37          O  0.4667870  0.7191260  0.4999970    0.00000       Uiso       1.00
       O38          O  0.5332140  0.2808750  0.4999970    0.00000       Uiso       1.00
       O39          O  0.7191260  0.5332140  0.4999970    0.00000       Uiso       1.00
       O40          O  0.2808750  0.4667870  0.4999970    0.00000       Uiso       1.00
       H41          H  0.5691440  0.6504980  0.4999970    0.00000       Uiso       1.00
       H42          H  0.4308570  0.3495030  0.4999970    0.00000       Uiso       1.00
       H43          H  0.3495030  0.5691440  0.4999970    0.00000       Uiso       1.00
       H44          H  0.6504980  0.4308570  0.4999970    0.00000       Uiso       1.00
       H45          H  0.4308570  0.6504980  0.4999970    0.00000       Uiso       1.00
       H46          H  0.5691440  0.3495030  0.4999970    0.00000       Uiso       1.00
       H47          H  0.6504980  0.5691440  0.4999970    0.00000       Uiso       1.00
       H48          H  0.3495030  0.4308570  0.4999970    0.00000       Uiso       1.00
       N49          N  0.5670020  0.5670020  0.4999970    0.00000       Uiso       1.00
       N50          N  0.4329990  0.4329990  0.4999970    0.00000       Uiso       1.00
       N51          N  0.4329990  0.5670020  0.4999970    0.00000       Uiso       1.00
       N52          N  0.5670020  0.4329990  0.4999970    0.00000       Uiso       1.00
       B53          B  0.5000000  0.7424140  0.4999970    0.00000       Uiso       1.00
       B54          B  0.5000000  0.2575870  0.4999970    0.00000       Uiso       1.00
       B55          B  0.2575870  0.5000000  0.4999970    0.00000       Uiso       1.00
       B56          B  0.7424140  0.5000000  0.4999970    0.00000       Uiso       1.00
       N57          N  0.5000000  0.0950500  0.4999970    0.00000       Uiso       1.00
       C58          C  0.5000000  0.1340220  0.4999970    0.00000       Uiso       1.00
       C59          C  0.5000000  0.2156820  0.4999970    0.00000       Uiso       1.00
       N60          N  0.5000000  0.9049510  0.4999970    0.00000       Uiso       1.00
       C61          C  0.5000000  0.8659790  0.4999970    0.00000       Uiso       1.00
       C62          C  0.5000000  0.7843190  0.4999970    0.00000       Uiso       1.00
       N63          N  0.9049510  0.5000000  0.4999970    0.00000       Uiso       1.00
       C64          C  0.8659790  0.5000000  0.4999970    0.00000       Uiso       1.00
       C65          C  0.7843190  0.5000000  0.4999970    0.00000       Uiso       1.00
       N66          N  0.0950500  0.5000000  0.4999970    0.00000       Uiso       1.00
       C67          C  0.1340220  0.5000000  0.4999970    0.00000       Uiso       1.00
       C68          C  0.2156820  0.5000000  0.4999970    0.00000       Uiso       1.00
       C69          C  0.4805270  0.9662210  0.4999970    0.00000       Uiso       1.00
       C70          C  0.4698200  0.0713490  0.4999970    0.00000       Uiso       1.00
       O71          O  0.4357590  0.0796560  0.4999970    0.00000       Uiso       1.00
       C72          C  0.4663150  0.1557530  0.4999970    0.00000       Uiso       1.00
       C73          C  0.4660430  0.1953640  0.4999970    0.00000       Uiso       1.00
       H74          H  0.4405980  0.1433480  0.4999970    0.00000       Uiso       1.00
       H75          H  0.4407680  0.2093190  0.4999970    0.00000       Uiso       1.00
       C76          C  0.5194740  0.0337800  0.4999970    0.00000       Uiso       1.00
       C77          C  0.5301810  0.9286519  0.4999970    0.00000       Uiso       1.00
       O78          O  0.5642420  0.9203450  0.4999970    0.00000       Uiso       1.00
       C79          C  0.5336860  0.8442480  0.4999970    0.00000       Uiso       1.00
       C80          C  0.5339580  0.8046370  0.4999970    0.00000       Uiso       1.00
       H81          H  0.5594030  0.8566530  0.4999970    0.00000       Uiso       1.00
       H82          H  0.5592330  0.7906820  0.4999970    0.00000       Uiso       1.00
       C83          C  0.0337800  0.4805270  0.4999970    0.00000       Uiso       1.00
       C84          C  0.9286519  0.4698200  0.4999970    0.00000       Uiso       1.00
       O85          O  0.9203450  0.4357590  0.4999970    0.00000       Uiso       1.00
       C86          C  0.8442480  0.4663150  0.4999970    0.00000       Uiso       1.00
       C87          C  0.8046370  0.4660430  0.4999970    0.00000       Uiso       1.00
       H88          H  0.8566530  0.4405980  0.4999970    0.00000       Uiso       1.00
       H89          H  0.7906820  0.4407680  0.4999970    0.00000       Uiso       1.00
       C90          C  0.9662210  0.5194740  0.4999970    0.00000       Uiso       1.00
       C91          C  0.0713490  0.5301810  0.4999970    0.00000       Uiso       1.00
       O92          O  0.0796560  0.5642420  0.4999970    0.00000       Uiso       1.00
       C93          C  0.1557530  0.5336860  0.4999970    0.00000       Uiso       1.00
       C94          C  0.1953640  0.5339580  0.4999970    0.00000       Uiso       1.00
       H95          H  0.1433480  0.5594030  0.4999970    0.00000       Uiso       1.00
       H96          H  0.2093190  0.5592330  0.4999970    0.00000       Uiso       1.00
       C97          C  0.5194740  0.9662210  0.4999970    0.00000       Uiso       1.00
       C98          C  0.5301810  0.0713490  0.4999970    0.00000       Uiso       1.00
       O99          O  0.5642420  0.0796560  0.4999970    0.00000       Uiso       1.00
      C100          C  0.5336860  0.1557530  0.4999970    0.00000       Uiso       1.00
      C101          C  0.5339580  0.1953640  0.4999970    0.00000       Uiso       1.00
      H102          H  0.5594030  0.1433480  0.4999970    0.00000       Uiso       1.00
      H103          H  0.5592330  0.2093190  0.4999970    0.00000       Uiso       1.00
      C104          C  0.4805270  0.0337800  0.4999970    0.00000       Uiso       1.00
      C105          C  0.4698200  0.9286519  0.4999970    0.00000       Uiso       1.00
      O106          O  0.4357590  0.9203450  0.4999970    0.00000       Uiso       1.00
      C107          C  0.4663150  0.8442480  0.4999970    0.00000       Uiso       1.00
      C108          C  0.4660430  0.8046370  0.4999970    0.00000       Uiso       1.00
      H109          H  0.4405980  0.8566530  0.4999970    0.00000       Uiso       1.00
      H110          H  0.4407680  0.7906820  0.4999970    0.00000       Uiso       1.00
      C111          C  0.9662210  0.4805270  0.4999970    0.00000       Uiso       1.00
      C112          C  0.0713490  0.4698200  0.4999970    0.00000       Uiso       1.00
      O113          O  0.0796560  0.4357590  0.4999970    0.00000       Uiso       1.00
      C114          C  0.1557530  0.4663150  0.4999970    0.00000       Uiso       1.00
      C115          C  0.1953640  0.4660430  0.4999970    0.00000       Uiso       1.00
      H116          H  0.1433480  0.4405980  0.4999970    0.00000       Uiso       1.00
      H117          H  0.2093190  0.4407680  0.4999970    0.00000       Uiso       1.00
      C118          C  0.0337800  0.5194740  0.4999970    0.00000       Uiso       1.00
      C119          C  0.9286519  0.5301810  0.4999970    0.00000       Uiso       1.00
      O120          O  0.9203450  0.5642420  0.4999970    0.00000       Uiso       1.00
      C121          C  0.8442480  0.5336860  0.4999970    0.00000       Uiso       1.00
      C122          C  0.8046370  0.5339580  0.4999970    0.00000       Uiso       1.00
      H123          H  0.8566530  0.5594030  0.4999970    0.00000       Uiso       1.00
      H124          H  0.7906820  0.5592330  0.4999970    0.00000       Uiso       1.00
      C125          C  0.4596120  0.0000000  0.4999970    0.00000       Uiso       1.00
      H126          H  0.4307520  0.0000000  0.4999970    0.00000       Uiso       1.00
      C127          C  0.5403890  0.0000000  0.4999970    0.00000       Uiso       1.00
      H128          H  0.5692490  0.0000000  0.4999970    0.00000       Uiso       1.00
      C129          C  0.0000000  0.4596120  0.4999970    0.00000       Uiso       1.00
      H130          H  0.0000000  0.4307520  0.4999970    0.00000       Uiso       1.00
      C131          C  0.0000000  0.5403890  0.4999970    0.00000       Uiso       1.00
      H132          H  0.0000000  0.5692490  0.4999970    0.00000       Uiso       1.00
     Cu133         Cu  0.5000000  0.5000000  0.4999970    0.00000       Uiso       1.00
      N134          N  0.5000000  0.5570320  0.4999970    0.00000       Uiso       1.00
      N135          N  0.5000000  0.4429690  0.4999970    0.00000       Uiso       1.00
      N136          N  0.4429690  0.5000000  0.4999970    0.00000       Uiso       1.00
      N137          N  0.5570320  0.5000000  0.4999970    0.00000       Uiso       1.00
