data_DhaTab-25
_audit_creation_date              0000-00-00
_audit_creation_method            'LanYouShi'
_symmetry_space_group_name_H-M    'P1'
_cell_length_a                    37.9379005
_cell_length_b                    37.9379005
_cell_length_c                    3.4793000
_cell_angle_alpha                 90.0000000
_cell_angle_beta                  90.0000000
_cell_angle_gamma                 120.0000000
loop_
_atom_site_label
_atom_site_type_symbol
_atom_site_fract_x
_atom_site_fract_y
_atom_site_fract_z
_atom_site_U_iso_or_equiv
_atom_site_adp_type
_atom_site_occupancy
        N1          N  0.8873390  0.4509500  0.5000020    0.00000       Uiso       1.00
        N2          N  0.1126680  0.5487310  0.5000020    0.00000       Uiso       1.00
        N3          N  0.5490500  0.4363890  0.5000020    0.00000       Uiso       1.00
        N4          N  0.4512690  0.5639370  0.5000020    0.00000       Uiso       1.00
        N5          N  0.5636110  0.1126610  0.5000020    0.00000       Uiso       1.00
        N6          N  0.4360630  0.8873320  0.5000020    0.00000       Uiso       1.00
        C7          C  0.9139540  0.4388810  0.5000020    0.00000       Uiso       1.00
        C8          C  0.5611190  0.4750730  0.5000020    0.00000       Uiso       1.00
        C9          C  0.5249260  0.0860450  0.5000020    0.00000       Uiso       1.00
       C10          C  0.9581650  0.4692970  0.5000020    0.00000       Uiso       1.00
       C11          C  0.0418050  0.5303200  0.5000020    0.00000       Uiso       1.00
       C12          C  0.5307030  0.4888680  0.5000020    0.00000       Uiso       1.00
       C13          C  0.4696790  0.5114840  0.5000020    0.00000       Uiso       1.00
       C14          C  0.5111310  0.0418350  0.5000020    0.00000       Uiso       1.00
       C15          C  0.4885150  0.9581950  0.5000020    0.00000       Uiso       1.00
       C16          C  0.9888710  0.4583470  0.5000020    0.00000       Uiso       1.00
       C17          C  0.0296780  0.4886740  0.5000020    0.00000       Uiso       1.00
       C18          C  0.5416530  0.5305240  0.5000020    0.00000       Uiso       1.00
       C19          C  0.5113260  0.5410040  0.5000020    0.00000       Uiso       1.00
       C20          C  0.4694760  0.0111290  0.5000020    0.00000       Uiso       1.00
       C21          C  0.4589960  0.9703220  0.5000020    0.00000       Uiso       1.00
       O22          O  0.9813380  0.4183300  0.5000020    0.00000       Uiso       1.00
       H23          H  0.0519880  0.4788590  0.5000020    0.00000       Uiso       1.00
       O24          O  0.5816700  0.5630080  0.5000020    0.00000       Uiso       1.00
       H25          H  0.5211400  0.5731290  0.5000020    0.00000       Uiso       1.00
       O26          O  0.4369920  0.0186620  0.5000020    0.00000       Uiso       1.00
       H27          H  0.4268710  0.9480110  0.5000020    0.00000       Uiso       1.00
       C28          C  0.0110910  0.5412630  0.5000020    0.00000       Uiso       1.00
       C29          C  0.9702910  0.5109390  0.5000020    0.00000       Uiso       1.00
       C30          C  0.4587370  0.4698280  0.5000020    0.00000       Uiso       1.00
       C31          C  0.4890610  0.4593530  0.5000020    0.00000       Uiso       1.00
       C32          C  0.5301720  0.9889089  0.5000020    0.00000       Uiso       1.00
       C33          C  0.5406470  0.0297080  0.5000020    0.00000       Uiso       1.00
       O34          O  0.0185990  0.5812650  0.5000020    0.00000       Uiso       1.00
       H35          H  0.9479870  0.5207640  0.5000020    0.00000       Uiso       1.00
       O36          O  0.4187350  0.4373340  0.5000020    0.00000       Uiso       1.00
       H37          H  0.4792350  0.4272230  0.5000020    0.00000       Uiso       1.00
       O38          O  0.5626660  0.9814011  0.5000020    0.00000       Uiso       1.00
       H39          H  0.5727760  0.0520120  0.5000020    0.00000       Uiso       1.00
       C40          C  0.1790410  0.5540690  0.5000020    0.00000       Uiso       1.00
       C41          C  0.8230700  0.3834720  0.5000020    0.00000       Uiso       1.00
       C42          C  0.4459300  0.6249720  0.5000020    0.00000       Uiso       1.00
       C43          C  0.6165280  0.4395980  0.5000020    0.00000       Uiso       1.00
       C44          C  0.3750280  0.8209580  0.5000020    0.00000       Uiso       1.00
       C45          C  0.5604010  0.1769300  0.5000020    0.00000       Uiso       1.00
       C46          C  0.2215720  0.5762050  0.5000020    0.00000       Uiso       1.00
       C47          C  0.7805070  0.3611120  0.5000020    0.00000       Uiso       1.00
       C48          C  0.4237950  0.6453670  0.5000020    0.00000       Uiso       1.00
       C49          C  0.6388880  0.4193950  0.5000020    0.00000       Uiso       1.00
       C50          C  0.3546330  0.7784280  0.5000020    0.00000       Uiso       1.00
       C51          C  0.5806050  0.2194930  0.5000020    0.00000       Uiso       1.00
       H52          H  0.1633730  0.5211400  0.5000020    0.00000       Uiso       1.00
       H53          H  0.8392570  0.3668590  0.5000020    0.00000       Uiso       1.00
       H54          H  0.4788600  0.6422330  0.5000020    0.00000       Uiso       1.00
       H55          H  0.6331400  0.4723980  0.5000020    0.00000       Uiso       1.00
       H56          H  0.3577660  0.8366260  0.5000020    0.00000       Uiso       1.00
       H57          H  0.5276020  0.1607420  0.5000020    0.00000       Uiso       1.00
       H58          H  0.2361340  0.5581460  0.5000020    0.00000       Uiso       1.00
       H59          H  0.7675290  0.3286450  0.5000020    0.00000       Uiso       1.00
       H60          H  0.4418540  0.6779870  0.5000020    0.00000       Uiso       1.00
       H61          H  0.6713550  0.4388840  0.5000020    0.00000       Uiso       1.00
       H62          H  0.3220120  0.7638660  0.5000020    0.00000       Uiso       1.00
       H63          H  0.5611160  0.2324710  0.5000020    0.00000       Uiso       1.00
       C64          C  0.3837370  0.5606110  0.5000020    0.00000       Uiso       1.00
       C65          C  0.6247020  0.1789730  0.5000020    0.00000       Uiso       1.00
       C66          C  0.4393890  0.8231260  0.5000020    0.00000       Uiso       1.00
       C67          C  0.8210270  0.4457290  0.5000020    0.00000       Uiso       1.00
       C68          C  0.1768740  0.6162630  0.5000020    0.00000       Uiso       1.00
       C69          C  0.5542710  0.3752980  0.5000020    0.00000       Uiso       1.00
       C70          C  0.3613110  0.5807460  0.5000020    0.00000       Uiso       1.00
       C71          C  0.6451670  0.2215050  0.5000020    0.00000       Uiso       1.00
       C72          C  0.4192530  0.7805640  0.5000020    0.00000       Uiso       1.00
       C73          C  0.7784950  0.4236620  0.5000020    0.00000       Uiso       1.00
       C74          C  0.2194350  0.6386880  0.5000020    0.00000       Uiso       1.00
       C75          C  0.5763380  0.3548330  0.5000020    0.00000       Uiso       1.00
       H76          H  0.3671840  0.5278100  0.5000020    0.00000       Uiso       1.00
       H77          H  0.6418880  0.1632300  0.5000020    0.00000       Uiso       1.00
       H78          H  0.4721890  0.8393730  0.5000020    0.00000       Uiso       1.00
       H79          H  0.8367700  0.4786580  0.5000020    0.00000       Uiso       1.00
       H80          H  0.1606270  0.6328160  0.5000020    0.00000       Uiso       1.00
       H81          H  0.5213420  0.3581120  0.5000020    0.00000       Uiso       1.00
       H82          H  0.3288490  0.5612120  0.5000020    0.00000       Uiso       1.00
       H83          H  0.6777820  0.2360140  0.5000020    0.00000       Uiso       1.00
       H84          H  0.4387880  0.7676370  0.5000020    0.00000       Uiso       1.00
       H85          H  0.7639860  0.4417690  0.5000020    0.00000       Uiso       1.00
       H86          H  0.2323630  0.6711500  0.5000020    0.00000       Uiso       1.00
       H87          H  0.5582310  0.3222170  0.5000020    0.00000       Uiso       1.00
       C88          C  0.3561900  0.6459700  0.5000020    0.00000       Uiso       1.00
       C89          C  0.6459040  0.2897780  0.5000020    0.00000       Uiso       1.00
       C90          C  0.3540300  0.7102190  0.5000020    0.00000       Uiso       1.00
       C91          C  0.7102210  0.3561260  0.5000020    0.00000       Uiso       1.00
       C92          C  0.2897800  0.6438100  0.5000020    0.00000       Uiso       1.00
       C93          C  0.6438740  0.3540960  0.5000020    0.00000       Uiso       1.00
       C94          C  0.4263860  0.5826840  0.5000020    0.00000       Uiso       1.00
       C95          C  0.5824170  0.1562960  0.5000020    0.00000       Uiso       1.00
       C96          C  0.4173150  0.8437010  0.5000020    0.00000       Uiso       1.00
       C97          C  0.8437030  0.4261200  0.5000020    0.00000       Uiso       1.00
       C98          C  0.1562990  0.5736140  0.5000020    0.00000       Uiso       1.00
       C99          C  0.5738790  0.4175830  0.5000020    0.00000       Uiso       1.00
      C100          C  0.3805820  0.6238940  0.5000020    0.00000       Uiso       1.00
      C101          C  0.6237570  0.2433080  0.5000020    0.00000       Uiso       1.00
      C102          C  0.3761060  0.7566880  0.5000020    0.00000       Uiso       1.00
      C103          C  0.7566920  0.3804500  0.5000020    0.00000       Uiso       1.00
      C104          C  0.2433120  0.6194170  0.5000020    0.00000       Uiso       1.00
      C105          C  0.6195500  0.3762420  0.5000020    0.00000       Uiso       1.00
      C106          C  0.3756080  0.6888520  0.5000020    0.00000       Uiso       1.00
      C107          C  0.6243900  0.3112100  0.5000020    0.00000       Uiso       1.00
      C108          C  0.3111480  0.6867550  0.5000020    0.00000       Uiso       1.00
      C109          C  0.6887900  0.3131800  0.5000020    0.00000       Uiso       1.00
      C110          C  0.3132440  0.6243920  0.5000020    0.00000       Uiso       1.00
      C111          C  0.6868190  0.3756100  0.5000020    0.00000       Uiso       1.00
      H112          H  0.2979430  0.5922030  0.5000020    0.00000       Uiso       1.00
      H113          H  0.7056310  0.2978310  0.5000020    0.00000       Uiso       1.00
      H114          H  0.4077970  0.7057400  0.5000020    0.00000       Uiso       1.00
      H115          H  0.7021690  0.4078000  0.5000020    0.00000       Uiso       1.00
      H116          H  0.2942590  0.7020570  0.5000020    0.00000       Uiso       1.00
      H117          H  0.5921990  0.2943680  0.5000020    0.00000       Uiso       1.00
      H118          H  0.0478190  0.6037170  0.5000020    0.00000       Uiso       1.00
      H119          H  0.3962830  0.4441010  0.5000020    0.00000       Uiso       1.00
      H120          H  0.5558980  0.9521810  0.5000020    0.00000       Uiso       1.00
      C121          C  0.4747400  0.9139830  0.5000020    0.00000       Uiso       1.00
      H122          H  0.9038440  0.4069540  0.5000020    0.00000       Uiso       1.00
      H123          H  0.9521310  0.3958670  0.5000020    0.00000       Uiso       1.00
      H124          H  0.4073240  0.5034220  0.5000020    0.00000       Uiso       1.00
      C125          C  0.0860160  0.5607560  0.5000020    0.00000       Uiso       1.00
      H126          H  0.5930460  0.4968910  0.5000020    0.00000       Uiso       1.00
      H127          H  0.6041330  0.5562650  0.5000020    0.00000       Uiso       1.00
      H128          H  0.4965770  0.9039010  0.5000020    0.00000       Uiso       1.00
      C129          C  0.4392430  0.5252600  0.5000020    0.00000       Uiso       1.00
      H130          H  0.5031090  0.0961550  0.5000020    0.00000       Uiso       1.00
      H131          H  0.4437350  0.0478680  0.5000020    0.00000       Uiso       1.00
      H132          H  0.0960980  0.5926760  0.5000020    0.00000       Uiso       1.00
