data_DhaTph-23
_audit_creation_date              0000-00-00
_audit_creation_method            'LanYouShi'
_symmetry_space_group_name_H-M    'P1'
_cell_length_a                    6.7448001
_cell_length_b                    39.9066010
_cell_length_c                    32.7807999
_cell_angle_alpha                 90.0000000
_cell_angle_beta                  90.0000000
_cell_angle_gamma                 90.0000000
loop_
_atom_site_label
_atom_site_type_symbol
_atom_site_fract_x
_atom_site_fract_y
_atom_site_fract_z
_atom_site_U_iso_or_equiv
_atom_site_adp_type
_atom_site_occupancy
        C1          C  0.4999990  0.2396960  0.5987440    0.00000       Uiso       1.00
        C2          C  0.4999990  0.7521380  0.0145740    0.00000       Uiso       1.00
        C3          C  0.4999990  0.7396970  0.0987440    0.00000       Uiso       1.00
        C4          C  0.4999990  0.2521380  0.5145740    0.00000       Uiso       1.00
        C5          C  0.4999990  0.7603040  0.5987440    0.00000       Uiso       1.00
        C6          C  0.4999990  0.2478620  0.0145740    0.00000       Uiso       1.00
        C7          C  0.4999990  0.2603040  0.0987440    0.00000       Uiso       1.00
        C8          C  0.4999990  0.7478620  0.5145740    0.00000       Uiso       1.00
        C9          C  0.4999990  0.2787070  0.5420310    0.00000       Uiso       1.00
       C10          C  0.4999990  0.7120850  0.0710170    0.00000       Uiso       1.00
       C11          C  0.4999990  0.7787070  0.0420300    0.00000       Uiso       1.00
       C12          C  0.4999990  0.2120850  0.5710180    0.00000       Uiso       1.00
       C13          C  0.4999990  0.7212930  0.5420310    0.00000       Uiso       1.00
       C14          C  0.4999990  0.2879150  0.0710170    0.00000       Uiso       1.00
       C15          C  0.4999990  0.2212930  0.0420300    0.00000       Uiso       1.00
       C16          C  0.4999990  0.7879160  0.5710180    0.00000       Uiso       1.00
       C17          C  0.4999990  0.1930800  0.4945720    0.00000       Uiso       1.00
       C18          C  0.4999990  0.8010610  0.1133230    0.00000       Uiso       1.00
       C19          C  0.4999990  0.6930800  0.9945730    0.00000       Uiso       1.00
       C20          C  0.4999990  0.3010610  0.6133240    0.00000       Uiso       1.00
       C21          C  0.4999990  0.8069200  0.4945720    0.00000       Uiso       1.00
       C22          C  0.4999990  0.1989390  0.1133230    0.00000       Uiso       1.00
       C23          C  0.4999990  0.3069200  0.9945730    0.00000       Uiso       1.00
       C24          C  0.4999990  0.6989390  0.6133240    0.00000       Uiso       1.00
       C25          C  0.4999990  0.2727850  0.5840810    0.00000       Uiso       1.00
       C26          C  0.4999990  0.7186030  0.0279150    0.00000       Uiso       1.00
       C27          C  0.4999990  0.7727850  0.0840810    0.00000       Uiso       1.00
       C28          C  0.4999990  0.2186030  0.5279160    0.00000       Uiso       1.00
       C29          C  0.4999990  0.7272150  0.5840810    0.00000       Uiso       1.00
       C30          C  0.4999990  0.2813980  0.0279150    0.00000       Uiso       1.00
       C31          C  0.4999990  0.2272150  0.0840810    0.00000       Uiso       1.00
       C32          C  0.4999990  0.7813980  0.5279160    0.00000       Uiso       1.00
       N33          N  0.4999990  0.3319560  0.6008200    0.00000       Uiso       1.00
       N34          N  0.4999990  0.6610840  0.0010090    0.00000       Uiso       1.00
       N35          N  0.4999990  0.8319561  0.1008190    0.00000       Uiso       1.00
       N36          N  0.4999990  0.1610840  0.5010090    0.00000       Uiso       1.00
       N37          N  0.4999990  0.6680440  0.6008200    0.00000       Uiso       1.00
       N38          N  0.4999990  0.3389160  0.0010090    0.00000       Uiso       1.00
       N39          N  0.4999990  0.1680440  0.1008190    0.00000       Uiso       1.00
       N40          N  0.4999990  0.8389160  0.5010090    0.00000       Uiso       1.00
       N41          N  0.4999990  0.0575620  0.2965690    0.00000       Uiso       1.00
       N42          N  0.4999990  0.5575620  0.7965690    0.00000       Uiso       1.00
       N43          N  0.4999990  0.9424380  0.2965690    0.00000       Uiso       1.00
       N44          N  0.4999990  0.4424380  0.7965690    0.00000       Uiso       1.00
       H45          H  0.4999990  0.0335300  0.2965520    0.00000       Uiso       1.00
       H46          H  0.4999990  0.5335300  0.7965530    0.00000       Uiso       1.00
       H47          H  0.4999990  0.9664699  0.2965520    0.00000       Uiso       1.00
       H48          H  0.4999990  0.4664700  0.7965530    0.00000       Uiso       1.00
       C49          C  0.4999990  0.0758740  0.2623350    0.00000       Uiso       1.00
       C50          C  0.4999990  0.9241190  0.3308100    0.00000       Uiso       1.00
       C51          C  0.4999990  0.5758740  0.7623350    0.00000       Uiso       1.00
       C52          C  0.4999990  0.4241190  0.8308110    0.00000       Uiso       1.00
       C53          C  0.4999990  0.9241269  0.2623350    0.00000       Uiso       1.00
       C54          C  0.4999990  0.0758820  0.3308100    0.00000       Uiso       1.00
       C55          C  0.4999990  0.4241270  0.7623350    0.00000       Uiso       1.00
       C56          C  0.4999990  0.5758820  0.8308110    0.00000       Uiso       1.00
       C57          C  0.4999990  0.1090930  0.2751520    0.00000       Uiso       1.00
       C58          C  0.4999990  0.8909060  0.3180170    0.00000       Uiso       1.00
       C59          C  0.4999990  0.6090930  0.7751530    0.00000       Uiso       1.00
       C60          C  0.4999990  0.3909060  0.8180180    0.00000       Uiso       1.00
       C61          C  0.4999990  0.8909070  0.2751520    0.00000       Uiso       1.00
       C62          C  0.4999990  0.1090940  0.3180170    0.00000       Uiso       1.00
       C63          C  0.4999990  0.3909070  0.7751530    0.00000       Uiso       1.00
       C64          C  0.4999990  0.6090940  0.8180180    0.00000       Uiso       1.00
       H65          H  0.4999990  0.1309990  0.2557320    0.00000       Uiso       1.00
       H66          H  0.4999990  0.8690130  0.3374560    0.00000       Uiso       1.00
       H67          H  0.4999990  0.6309990  0.7557330    0.00000       Uiso       1.00
       H68          H  0.4999990  0.3690130  0.8374570    0.00000       Uiso       1.00
       H69          H  0.4999990  0.8690010  0.2557320    0.00000       Uiso       1.00
       H70          H  0.4999990  0.1309870  0.3374560    0.00000       Uiso       1.00
       H71          H  0.4999990  0.3690010  0.7557330    0.00000       Uiso       1.00
       H72          H  0.4999990  0.6309870  0.8374570    0.00000       Uiso       1.00
       N73          N  0.4999990  0.5000000  0.7285340    0.00000       Uiso       1.00
       N74          N  0.4999990  0.5000000  0.8645360    0.00000       Uiso       1.00
       N75          N  0.4999990  0.0000000  0.2285330    0.00000       Uiso       1.00
       N76          N  0.4999990  0.0000000  0.3645350    0.00000       Uiso       1.00
       C77          C  0.4999990  0.5294960  0.7045730    0.00000       Uiso       1.00
       C78          C  0.4999990  0.4705120  0.8885050    0.00000       Uiso       1.00
       C79          C  0.4999990  0.0294960  0.2045730    0.00000       Uiso       1.00
       C80          C  0.4999990  0.9705120  0.3885040    0.00000       Uiso       1.00
       C81          C  0.4999990  0.4705040  0.7045730    0.00000       Uiso       1.00
       C82          C  0.4999990  0.5294880  0.8885050    0.00000       Uiso       1.00
       C83          C  0.4999990  0.9705040  0.2045730    0.00000       Uiso       1.00
       C84          C  0.4999990  0.0294880  0.3885040    0.00000       Uiso       1.00
       C85          C  0.4999990  0.5169210  0.6622420    0.00000       Uiso       1.00
       C86          C  0.4999990  0.4830860  0.9308400    0.00000       Uiso       1.00
       C87          C  0.4999990  0.0169210  0.1622410    0.00000       Uiso       1.00
       C88          C  0.4999990  0.9830860  0.4308400    0.00000       Uiso       1.00
       C89          C  0.4999990  0.4830790  0.6622420    0.00000       Uiso       1.00
       C90          C  0.4999990  0.5169140  0.9308400    0.00000       Uiso       1.00
       C91          C  0.4999990  0.9830790  0.1622410    0.00000       Uiso       1.00
       C92          C  0.4999990  0.0169140  0.4308400    0.00000       Uiso       1.00
       H93          H  0.4999990  0.5322770  0.6350480    0.00000       Uiso       1.00
       H94          H  0.4999990  0.4677390  0.9580490    0.00000       Uiso       1.00
       H95          H  0.4999990  0.0322770  0.1350470    0.00000       Uiso       1.00
       H96          H  0.4999990  0.9677390  0.4580480    0.00000       Uiso       1.00
       H97          H  0.4999990  0.4677230  0.6350480    0.00000       Uiso       1.00
       H98          H  0.4999990  0.5322610  0.9580490    0.00000       Uiso       1.00
       H99          H  0.4999990  0.9677231  0.1350470    0.00000       Uiso       1.00
      H100          H  0.4999990  0.0322610  0.4580480    0.00000       Uiso       1.00
      C101          C  0.4999990  0.0625390  0.2180980    0.00000       Uiso       1.00
      C102          C  0.4999990  0.9374580  0.3750220    0.00000       Uiso       1.00
      C103          C  0.4999990  0.5625390  0.7180990    0.00000       Uiso       1.00
      C104          C  0.4999990  0.4374580  0.8750230    0.00000       Uiso       1.00
      C105          C  0.4999990  0.9374610  0.2180980    0.00000       Uiso       1.00
      C106          C  0.4999990  0.0625420  0.3750220    0.00000       Uiso       1.00
      C107          C  0.4999990  0.4374610  0.7180990    0.00000       Uiso       1.00
      C108          C  0.4999990  0.5625420  0.8750230    0.00000       Uiso       1.00
      C109          C  0.4999990  0.0887500  0.1864470    0.00000       Uiso       1.00
      C110          C  0.4999990  0.9114060  0.4068760    0.00000       Uiso       1.00
      C111          C  0.4999990  0.5887500  0.6864480    0.00000       Uiso       1.00
      C112          C  0.4999990  0.4114060  0.9068770    0.00000       Uiso       1.00
      C113          C  0.4999990  0.9112500  0.1864470    0.00000       Uiso       1.00
      C114          C  0.4999990  0.0885940  0.4068760    0.00000       Uiso       1.00
      C115          C  0.4999990  0.4112500  0.6864480    0.00000       Uiso       1.00
      C116          C  0.4999990  0.5885940  0.9068770    0.00000       Uiso       1.00
      C117          C  0.6797860  0.6016870  0.6718790    0.00000       Uiso       1.00
      C118          C  0.6798020  0.3991600  0.9223090    0.00000       Uiso       1.00
      C119          C  0.6797860  0.1016870  0.1718780    0.00000       Uiso       1.00
      C120          C  0.6798020  0.8991600  0.4223080    0.00000       Uiso       1.00
      C121          C  0.3202130  0.3983130  0.6718790    0.00000       Uiso       1.00
      C122          C  0.3201960  0.6008400  0.9223090    0.00000       Uiso       1.00
      C123          C  0.3202130  0.8983130  0.1718780    0.00000       Uiso       1.00
      C124          C  0.3201960  0.1008400  0.4223080    0.00000       Uiso       1.00
      C125          C  0.6797860  0.3983130  0.6718790    0.00000       Uiso       1.00
      C126          C  0.6798020  0.6008400  0.9223090    0.00000       Uiso       1.00
      C127          C  0.6797860  0.8983130  0.1718780    0.00000       Uiso       1.00
      C128          C  0.6798020  0.1008400  0.4223080    0.00000       Uiso       1.00
      C129          C  0.3202130  0.6016870  0.6718790    0.00000       Uiso       1.00
      C130          C  0.3201960  0.3991600  0.9223090    0.00000       Uiso       1.00
      C131          C  0.3202130  0.1016870  0.1718780    0.00000       Uiso       1.00
      C132          C  0.3201960  0.8991600  0.4223080    0.00000       Uiso       1.00
      H133          H  0.8190740  0.0918950  0.1831500    0.00000       Uiso       1.00
      H134          H  0.8191140  0.9086239  0.4106450    0.00000       Uiso       1.00
      H135          H  0.8190740  0.5918950  0.6831510    0.00000       Uiso       1.00
      H136          H  0.8191140  0.4086240  0.9106460    0.00000       Uiso       1.00
      H137          H  0.1809250  0.9081050  0.1831500    0.00000       Uiso       1.00
      H138          H  0.1808850  0.0913760  0.4106450    0.00000       Uiso       1.00
      H139          H  0.1809250  0.4081050  0.6831510    0.00000       Uiso       1.00
      H140          H  0.1808850  0.5913760  0.9106460    0.00000       Uiso       1.00
      H141          H  0.8190740  0.9081050  0.1831500    0.00000       Uiso       1.00
      H142          H  0.8191140  0.0913760  0.4106450    0.00000       Uiso       1.00
      H143          H  0.8190740  0.4081050  0.6831510    0.00000       Uiso       1.00
      H144          H  0.8191140  0.5913760  0.9106460    0.00000       Uiso       1.00
      H145          H  0.1809250  0.0918950  0.1831500    0.00000       Uiso       1.00
      H146          H  0.1808850  0.9086239  0.4106450    0.00000       Uiso       1.00
      H147          H  0.1809250  0.5918950  0.6831510    0.00000       Uiso       1.00
      H148          H  0.1808850  0.4086240  0.9106460    0.00000       Uiso       1.00
      C149          C  0.6794640  0.1276010  0.1431160    0.00000       Uiso       1.00
      C150          C  0.6794190  0.8749620  0.4532160    0.00000       Uiso       1.00
      C151          C  0.6794640  0.6276010  0.6431160    0.00000       Uiso       1.00
      C152          C  0.6794190  0.3749620  0.9532170    0.00000       Uiso       1.00
      C153          C  0.3205350  0.8723989  0.1431160    0.00000       Uiso       1.00
      C154          C  0.3205800  0.1250380  0.4532160    0.00000       Uiso       1.00
      C155          C  0.3205350  0.3723990  0.6431160    0.00000       Uiso       1.00
      C156          C  0.3205800  0.6250380  0.9532170    0.00000       Uiso       1.00
      C157          C  0.6794640  0.8723989  0.1431160    0.00000       Uiso       1.00
      C158          C  0.6794190  0.1250380  0.4532160    0.00000       Uiso       1.00
      C159          C  0.6794640  0.3723990  0.6431160    0.00000       Uiso       1.00
      C160          C  0.6794190  0.6250380  0.9532170    0.00000       Uiso       1.00
      C161          C  0.3205350  0.1276010  0.1431160    0.00000       Uiso       1.00
      C162          C  0.3205800  0.8749620  0.4532160    0.00000       Uiso       1.00
      C163          C  0.3205350  0.6276010  0.6431160    0.00000       Uiso       1.00
      C164          C  0.3205800  0.3749620  0.9532170    0.00000       Uiso       1.00
      H165          H  0.8176900  0.1378640  0.1320580    0.00000       Uiso       1.00
      H166          H  0.8174420  0.8657169  0.4656230    0.00000       Uiso       1.00
      H167          H  0.8176900  0.6378640  0.6320590    0.00000       Uiso       1.00
      H168          H  0.8174420  0.3657170  0.9656240    0.00000       Uiso       1.00
      H169          H  0.1823080  0.8621360  0.1320580    0.00000       Uiso       1.00
      H170          H  0.1825570  0.1342830  0.4656230    0.00000       Uiso       1.00
      H171          H  0.1823080  0.3621360  0.6320590    0.00000       Uiso       1.00
      H172          H  0.1825570  0.6342830  0.9656240    0.00000       Uiso       1.00
      H173          H  0.8176900  0.8621360  0.1320580    0.00000       Uiso       1.00
      H174          H  0.8174420  0.1342830  0.4656230    0.00000       Uiso       1.00
      H175          H  0.8176900  0.3621360  0.6320590    0.00000       Uiso       1.00
      H176          H  0.8174420  0.6342830  0.9656240    0.00000       Uiso       1.00
      H177          H  0.1823080  0.1378640  0.1320580    0.00000       Uiso       1.00
      H178          H  0.1825570  0.8657169  0.4656230    0.00000       Uiso       1.00
      H179          H  0.1823080  0.6378640  0.6320590    0.00000       Uiso       1.00
      H180          H  0.1825570  0.3657170  0.9656240    0.00000       Uiso       1.00
      C181          C  0.4999990  0.1407360  0.1289510    0.00000       Uiso       1.00
      C182          C  0.4999990  0.8628000  0.4685950    0.00000       Uiso       1.00
      C183          C  0.4999990  0.6407360  0.6289520    0.00000       Uiso       1.00
      C184          C  0.4999990  0.3628000  0.9685960    0.00000       Uiso       1.00
      C185          C  0.4999990  0.8592640  0.1289510    0.00000       Uiso       1.00
      C186          C  0.4999990  0.1372000  0.4685950    0.00000       Uiso       1.00
      C187          C  0.4999990  0.3592640  0.6289520    0.00000       Uiso       1.00
      C188          C  0.4999990  0.6372000  0.9685960    0.00000       Uiso       1.00
      O189          O  0.4999990  0.2348920  0.6413620    0.00000       Uiso       1.00
      H190          H  0.4999990  0.3041850  0.5304400    0.00000       Uiso       1.00
      H191          H  0.4999990  0.2019650  0.4632370    0.00000       Uiso       1.00
      H192          H  0.4999990  0.7579770  0.9822400    0.00000       Uiso       1.00
      O193          O  0.4999990  0.6797330  0.0883580    0.00000       Uiso       1.00
      H194          H  0.4999990  0.7956660  0.1458370    0.00000       Uiso       1.00
      H195          H  0.4999990  0.2102500  0.6493360    0.00000       Uiso       1.00
      H196          H  0.4999990  0.6601120  0.0691350    0.00000       Uiso       1.00
      O197          O  0.4999990  0.7348920  0.1413610    0.00000       Uiso       1.00
      H198          H  0.4999990  0.8041850  0.0304390    0.00000       Uiso       1.00
      H199          H  0.4999990  0.7019650  0.9632380    0.00000       Uiso       1.00
      H200          H  0.4999990  0.2579770  0.4822400    0.00000       Uiso       1.00
      O201          O  0.4999990  0.1797330  0.5883580    0.00000       Uiso       1.00
      H202          H  0.4999990  0.2956660  0.6458380    0.00000       Uiso       1.00
      H203          H  0.4999990  0.7102500  0.1493360    0.00000       Uiso       1.00
      H204          H  0.4999990  0.1601120  0.5691360    0.00000       Uiso       1.00
      O205          O  0.4999990  0.7651080  0.6413620    0.00000       Uiso       1.00
      H206          H  0.4999990  0.6958150  0.5304400    0.00000       Uiso       1.00
      H207          H  0.4999990  0.7980350  0.4632370    0.00000       Uiso       1.00
      H208          H  0.4999990  0.2420230  0.9822400    0.00000       Uiso       1.00
      O209          O  0.4999990  0.3202670  0.0883580    0.00000       Uiso       1.00
      H210          H  0.4999990  0.2043340  0.1458370    0.00000       Uiso       1.00
      H211          H  0.4999990  0.7897500  0.6493360    0.00000       Uiso       1.00
      H212          H  0.4999990  0.3398880  0.0691350    0.00000       Uiso       1.00
      O213          O  0.4999990  0.2651080  0.1413610    0.00000       Uiso       1.00
      H214          H  0.4999990  0.1958150  0.0304390    0.00000       Uiso       1.00
      H215          H  0.4999990  0.2980350  0.9632380    0.00000       Uiso       1.00
      H216          H  0.4999990  0.7420230  0.4822400    0.00000       Uiso       1.00
      O217          O  0.4999990  0.8202670  0.5883580    0.00000       Uiso       1.00
      H218          H  0.4999990  0.7043340  0.6458380    0.00000       Uiso       1.00
      H219          H  0.4999990  0.2897500  0.1493360    0.00000       Uiso       1.00
      H220          H  0.4999990  0.8398880  0.5691360    0.00000       Uiso       1.00
