data_DhaTph-25
_audit_creation_date              0000-00-00
_audit_creation_method            'LanYouShi'
_symmetry_space_group_name_H-M    'P1'
_cell_length_a                    25.7882004
_cell_length_b                    6.7442999
_cell_length_c                    25.8978996
_cell_angle_alpha                 90.0000000
_cell_angle_beta                  100.3786011
_cell_angle_gamma                 90.0000000
loop_
_atom_site_label
_atom_site_type_symbol
_atom_site_fract_x
_atom_site_fract_y
_atom_site_fract_z
_atom_site_U_iso_or_equiv
_atom_site_adp_type
_atom_site_occupancy
        C1          C  0.4675030  0.5000010  0.4501650    0.00000       Uiso       1.00
        C2          C  0.9533850  0.5000010  0.9637970    0.00000       Uiso       1.00
        C3          C  0.5324960  0.5000010  0.5498370    0.00000       Uiso       1.00
        C4          C  0.0466130  0.5000010  0.0362050    0.00000       Uiso       1.00
        C5          C  0.4775370  0.5000010  0.5452710    0.00000       Uiso       1.00
        C6          C  0.0490860  0.5000010  0.9828579    0.00000       Uiso       1.00
        C7          C  0.5224610  0.5000010  0.4547310    0.00000       Uiso       1.00
        C8          C  0.9509130  0.5000010  0.0171440    0.00000       Uiso       1.00
        C9          C  0.6132930  0.5000010  0.5094810    0.00000       Uiso       1.00
       C10          C  0.0033460  0.5000010  0.1130820    0.00000       Uiso       1.00
       C11          C  0.3867060  0.5000010  0.4905210    0.00000       Uiso       1.00
       C12          C  0.9966530  0.5000010  0.8869200    0.00000       Uiso       1.00
       C13          C  0.4447240  0.5000010  0.4956160    0.00000       Uiso       1.00
       C14          C  0.0013330  0.5000010  0.9451650    0.00000       Uiso       1.00
       C15          C  0.5552740  0.5000010  0.5043860    0.00000       Uiso       1.00
       C16          C  0.9986660  0.5000010  0.0548370    0.00000       Uiso       1.00
       N17          N  0.3644930  0.5000010  0.5317270    0.00000       Uiso       1.00
       N18          N  0.0368970  0.5000010  0.8634150    0.00000       Uiso       1.00
       N19          N  0.6355050  0.5000010  0.4682750    0.00000       Uiso       1.00
       N20          N  0.9631020  0.5000010  0.1365870    0.00000       Uiso       1.00
       N21          N  0.9423280  0.5000010  0.5580800    0.00000       Uiso       1.00
       N22          N  0.0576700  0.5000010  0.4419220    0.00000       Uiso       1.00
       H23          H  0.9663980  0.5000010  0.5338440    0.00000       Uiso       1.00
       H24          H  0.0336000  0.5000010  0.4661570    0.00000       Uiso       1.00
       C25          C  0.9581060  0.5000010  0.6102630    0.00000       Uiso       1.00
       C26          C  0.1101330  0.5000010  0.4571610    0.00000       Uiso       1.00
       C27          C  0.0418920  0.5000010  0.3897390    0.00000       Uiso       1.00
       C28          C  0.8898661  0.5000010  0.5428410    0.00000       Uiso       1.00
       C29          C  0.9120790  0.5000010  0.6311590    0.00000       Uiso       1.00
       C30          C  0.1306410  0.5000010  0.4110510    0.00000       Uiso       1.00
       C31          C  0.0879190  0.5000010  0.3688420    0.00000       Uiso       1.00
       C32          C  0.8693580  0.5000010  0.5889510    0.00000       Uiso       1.00
       H33          H  0.9095130  0.5000010  0.6723790    0.00000       Uiso       1.00
       H34          H  0.1719390  0.5000010  0.4080930    0.00000       Uiso       1.00
       H35          H  0.0904850  0.5000010  0.3276220    0.00000       Uiso       1.00
       H36          H  0.8280590  0.5000010  0.5919080    0.00000       Uiso       1.00
       N37          N  0.0677450  0.5000010  0.5669300    0.00000       Uiso       1.00
       N38          N  0.9322529  0.5000010  0.4330710    0.00000       Uiso       1.00
       C39          C  0.0620910  0.5000010  0.6202770    0.00000       Uiso       1.00
       C40          C  0.1211700  0.5000010  0.5607850    0.00000       Uiso       1.00
       C41          C  0.9379070  0.5000010  0.3797250    0.00000       Uiso       1.00
       C42          C  0.8788280  0.5000010  0.4392170    0.00000       Uiso       1.00
       C43          C  0.1168750  0.5000010  0.6492740    0.00000       Uiso       1.00
       C44          C  0.1507610  0.5000010  0.6151510    0.00000       Uiso       1.00
       C45          C  0.8831230  0.5000010  0.3507280    0.00000       Uiso       1.00
       C46          C  0.8492370  0.5000010  0.3848510    0.00000       Uiso       1.00
       H47          H  0.1286060  0.5000010  0.6915430    0.00000       Uiso       1.00
       H48          H  0.1932440  0.5000010  0.6264560    0.00000       Uiso       1.00
       H49          H  0.8713920  0.5000010  0.3084590    0.00000       Uiso       1.00
       H50          H  0.8067549  0.5000010  0.3735460    0.00000       Uiso       1.00
       C51          C  0.0155410  0.5000010  0.6403350    0.00000       Uiso       1.00
       C52          C  0.1408300  0.5000010  0.5141630    0.00000       Uiso       1.00
       C53          C  0.9844570  0.5000010  0.3596660    0.00000       Uiso       1.00
       C54          C  0.8591680  0.5000010  0.4858390    0.00000       Uiso       1.00
       C55          C  0.0210810  0.5000010  0.6979640    0.00000       Uiso       1.00
       C56          C  0.1986510  0.5000010  0.5191100    0.00000       Uiso       1.00
       C57          C  0.9789180  0.5000010  0.3020380    0.00000       Uiso       1.00
       C58          C  0.8013480  0.5000010  0.4808910    0.00000       Uiso       1.00
       C59          C  0.0236570  0.3201840  0.7254670    0.00000       Uiso       1.00
       C60          C  0.2262280  0.6798030  0.5212600    0.00000       Uiso       1.00
       C61          C  0.9763410  0.3201840  0.2745340    0.00000       Uiso       1.00
       C62          C  0.7737700  0.6798030  0.4787420    0.00000       Uiso       1.00
       C63          C  0.9763410  0.6798170  0.2745340    0.00000       Uiso       1.00
       C64          C  0.7737700  0.3201980  0.4787420    0.00000       Uiso       1.00
       C65          C  0.0236570  0.6798170  0.7254670    0.00000       Uiso       1.00
       C66          C  0.2262280  0.3201980  0.5212600    0.00000       Uiso       1.00
       H67          H  0.0217620  0.1808640  0.7044590    0.00000       Uiso       1.00
       H68          H  0.2051420  0.8191060  0.5196020    0.00000       Uiso       1.00
       H69          H  0.9782369  0.1808640  0.2955430    0.00000       Uiso       1.00
       H70          H  0.7948570  0.8191060  0.4804000    0.00000       Uiso       1.00
       H71          H  0.9782369  0.8191380  0.2955430    0.00000       Uiso       1.00
       H72          H  0.7948570  0.1808950  0.4804000    0.00000       Uiso       1.00
       H73          H  0.0217620  0.8191380  0.7044590    0.00000       Uiso       1.00
       H74          H  0.2051420  0.1808950  0.5196020    0.00000       Uiso       1.00
       C75          C  0.0288730  0.3205620  0.7802060    0.00000       Uiso       1.00
       C76          C  0.2811080  0.6794740  0.5255630    0.00000       Uiso       1.00
       C77          C  0.9711250  0.3205620  0.2197960    0.00000       Uiso       1.00
       C78          C  0.7188900  0.6794740  0.4744390    0.00000       Uiso       1.00
       C79          C  0.9711250  0.6794400  0.2197960    0.00000       Uiso       1.00
       C80          C  0.7188900  0.3205270  0.4744390    0.00000       Uiso       1.00
       C81          C  0.0288730  0.6794400  0.7802060    0.00000       Uiso       1.00
       C82          C  0.2811080  0.3205270  0.5255630    0.00000       Uiso       1.00
       H83          H  0.0311480  0.1825230  0.8016970    0.00000       Uiso       1.00
       H84          H  0.3025680  0.8177010  0.5273180    0.00000       Uiso       1.00
       H85          H  0.9688510  0.1825230  0.1983050    0.00000       Uiso       1.00
       H86          H  0.6974310  0.8177010  0.4726840    0.00000       Uiso       1.00
       H87          H  0.9688510  0.8174780  0.1983050    0.00000       Uiso       1.00
       H88          H  0.6974310  0.1823000  0.4726840    0.00000       Uiso       1.00
       H89          H  0.0311480  0.8174780  0.8016970    0.00000       Uiso       1.00
       H90          H  0.3025680  0.1823000  0.5273180    0.00000       Uiso       1.00
       C91          C  0.0312440  0.5000010  0.8075540    0.00000       Uiso       1.00
       C92          C  0.3085390  0.5000010  0.5274920    0.00000       Uiso       1.00
       C93          C  0.9687540  0.5000010  0.1924480    0.00000       Uiso       1.00
       C94          C  0.6914590  0.5000010  0.4725100    0.00000       Uiso       1.00
       O95          O  0.4350780  0.5000010  0.4007100    0.00000       Uiso       1.00
       H96          H  0.4604680  0.5000010  0.5804840    0.00000       Uiso       1.00
       H97          H  0.6373690  0.5000010  0.5485360    0.00000       Uiso       1.00
       H98          H  0.9162130  0.5000010  0.9365720    0.00000       Uiso       1.00
       O99          O  0.1000270  0.5000010  0.9714310    0.00000       Uiso       1.00
      H100          H  0.0426500  0.5000010  0.1368700    0.00000       Uiso       1.00
      H101          H  0.0384590  0.5000010  0.5379940    0.00000       Uiso       1.00
      H102          H  0.4550300  0.5000010  0.3703240    0.00000       Uiso       1.00
      H103          H  0.1028770  0.5000010  0.9332300    0.00000       Uiso       1.00
      O104          O  0.5649210  0.5000010  0.5992920    0.00000       Uiso       1.00
      H105          H  0.5395300  0.5000010  0.4195170    0.00000       Uiso       1.00
      H106          H  0.3626290  0.5000010  0.4514660    0.00000       Uiso       1.00
      H107          H  0.0837860  0.5000010  0.0634300    0.00000       Uiso       1.00
      O108          O  0.8999720  0.5000010  0.0285710    0.00000       Uiso       1.00
      H109          H  0.9573479  0.5000010  0.8631320    0.00000       Uiso       1.00
      H110          H  0.9615390  0.5000010  0.4620070    0.00000       Uiso       1.00
      H111          H  0.5449680  0.5000010  0.6296780    0.00000       Uiso       1.00
      H112          H  0.8971210  0.5000010  0.0667720    0.00000       Uiso       1.00
