data_DL-COF-1-bor
_audit_creation_date              0000-00-00
_audit_creation_method            'LanYouShi'
_symmetry_space_group_name_H-M    'P1'
_cell_length_a                    26.5613995
_cell_length_b                    26.5613995
_cell_length_c                    26.5613995
_cell_angle_alpha                 90.0000000
_cell_angle_beta                  90.0000000
_cell_angle_gamma                 90.0000000
loop_
_atom_site_label
_atom_site_type_symbol
_atom_site_fract_x
_atom_site_fract_y
_atom_site_fract_z
_atom_site_U_iso_or_equiv
_atom_site_adp_type
_atom_site_occupancy
        B1          B  0.1944600  0.8156100  0.7445800    0.00000       Uiso       1.00
        C2          C  0.9484800  0.4028800  0.9010000    0.00000       Uiso       1.00
        O3          O  0.8333400  0.2292600  0.7603900    0.00000       Uiso       1.00
        N4          N  0.0645600  0.0668800  0.4341000    0.00000       Uiso       1.00
        C5          C  0.0339600  0.0336500  0.4659900    0.00000       Uiso       1.00
        H6          H  0.0245400  0.5231000  0.0923300    0.00000       Uiso       1.00
        H7          H  0.0242200  0.4078000  0.9765500    0.00000       Uiso       1.00
        H8          H  0.9083100  0.5237800  0.9761300    0.00000       Uiso       1.00
        C9          C  0.8284200  0.1507700  0.7017900    0.00000       Uiso       1.00
       C10          C  0.8099300  0.1019500  0.6936300    0.00000       Uiso       1.00
       C11          C  0.8331800  0.0702500  0.6586700    0.00000       Uiso       1.00
       C12          C  0.8747600  0.0870400  0.6307800    0.00000       Uiso       1.00
       C13          C  0.8693800  0.1680400  0.6731700    0.00000       Uiso       1.00
       C14          C  0.8921900  0.1365300  0.6376800    0.00000       Uiso       1.00
       H15          H  0.9881800  0.3999600  0.8921300    0.00000       Uiso       1.00
       H16          H  0.7784500  0.0876000  0.7152400    0.00000       Uiso       1.00
       H17          H  0.8191400  0.0322400  0.6539600    0.00000       Uiso       1.00
       H18          H  0.8843600  0.2055700  0.6786900    0.00000       Uiso       1.00
       H19          H  0.9243400  0.1504000  0.6167900    0.00000       Uiso       1.00
       B20          B  0.8055400  0.1843900  0.7445800    0.00000       Uiso       1.00
       C21          C  0.0515200  0.5971200  0.9010000    0.00000       Uiso       1.00
       O22          O  0.1666600  0.7707399  0.7603900    0.00000       Uiso       1.00
       N23          N  0.9354400  0.9331200  0.4341000    0.00000       Uiso       1.00
       C24          C  0.9660400  0.9663500  0.4659900    0.00000       Uiso       1.00
       H25          H  0.9754600  0.4769000  0.0923300    0.00000       Uiso       1.00
       H26          H  0.9757800  0.5922000  0.9765500    0.00000       Uiso       1.00
       H27          H  0.0916900  0.4762200  0.9761300    0.00000       Uiso       1.00
       C28          C  0.1715800  0.8492301  0.7017900    0.00000       Uiso       1.00
       C29          C  0.1900700  0.8980500  0.6936300    0.00000       Uiso       1.00
       C30          C  0.1668200  0.9297500  0.6586700    0.00000       Uiso       1.00
       C31          C  0.1252400  0.9129600  0.6307800    0.00000       Uiso       1.00
       C32          C  0.1306200  0.8319600  0.6731700    0.00000       Uiso       1.00
       C33          C  0.1078100  0.8634700  0.6376800    0.00000       Uiso       1.00
       H34          H  0.0118200  0.6000400  0.8921300    0.00000       Uiso       1.00
       H35          H  0.2215500  0.9124000  0.7152400    0.00000       Uiso       1.00
       H36          H  0.1808600  0.9677600  0.6539600    0.00000       Uiso       1.00
       H37          H  0.1156400  0.7944300  0.6786900    0.00000       Uiso       1.00
       H38          H  0.0756600  0.8496000  0.6167900    0.00000       Uiso       1.00
       B39          B  0.8055400  0.8156100  0.2554200    0.00000       Uiso       1.00
       C40          C  0.0515200  0.4028800  0.0990000    0.00000       Uiso       1.00
       O41          O  0.1666600  0.2292600  0.2396100    0.00000       Uiso       1.00
       N42          N  0.9354400  0.0668800  0.5659000    0.00000       Uiso       1.00
       C43          C  0.9660400  0.0336500  0.5340100    0.00000       Uiso       1.00
       H44          H  0.9754600  0.5231000  0.9076700    0.00000       Uiso       1.00
       H45          H  0.9757800  0.4078000  0.0234500    0.00000       Uiso       1.00
       H46          H  0.0916900  0.5237800  0.0238700    0.00000       Uiso       1.00
       C47          C  0.1715800  0.1507700  0.2982100    0.00000       Uiso       1.00
       C48          C  0.1900700  0.1019500  0.3063700    0.00000       Uiso       1.00
       C49          C  0.1668200  0.0702500  0.3413300    0.00000       Uiso       1.00
       C50          C  0.1252400  0.0870400  0.3692200    0.00000       Uiso       1.00
       C51          C  0.1306200  0.1680400  0.3268300    0.00000       Uiso       1.00
       C52          C  0.1078100  0.1365300  0.3623200    0.00000       Uiso       1.00
       H53          H  0.0118200  0.3999600  0.1078700    0.00000       Uiso       1.00
       H54          H  0.2215500  0.0876000  0.2847600    0.00000       Uiso       1.00
       H55          H  0.1808600  0.0322400  0.3460400    0.00000       Uiso       1.00
       H56          H  0.1156400  0.2055700  0.3213100    0.00000       Uiso       1.00
       H57          H  0.0756600  0.1504000  0.3832100    0.00000       Uiso       1.00
       B58          B  0.1944600  0.1843900  0.2554200    0.00000       Uiso       1.00
       C59          C  0.9484800  0.5971200  0.0990000    0.00000       Uiso       1.00
       O60          O  0.8333400  0.7707399  0.2396100    0.00000       Uiso       1.00
       N61          N  0.0645600  0.9331200  0.5659000    0.00000       Uiso       1.00
       C62          C  0.0339600  0.9663500  0.5340100    0.00000       Uiso       1.00
       H63          H  0.0245400  0.4769000  0.9076700    0.00000       Uiso       1.00
       H64          H  0.0242200  0.5922000  0.0234500    0.00000       Uiso       1.00
       H65          H  0.9083100  0.4762200  0.0238700    0.00000       Uiso       1.00
       C66          C  0.8284200  0.8492301  0.2982100    0.00000       Uiso       1.00
       C67          C  0.8099300  0.8980500  0.3063700    0.00000       Uiso       1.00
       C68          C  0.8331800  0.9297500  0.3413300    0.00000       Uiso       1.00
       C69          C  0.8747600  0.9129600  0.3692200    0.00000       Uiso       1.00
       C70          C  0.8693800  0.8319600  0.3268300    0.00000       Uiso       1.00
       C71          C  0.8921900  0.8634700  0.3623200    0.00000       Uiso       1.00
       H72          H  0.9881800  0.6000400  0.1078700    0.00000       Uiso       1.00
       H73          H  0.7784500  0.9124000  0.2847600    0.00000       Uiso       1.00
       H74          H  0.8191400  0.9677600  0.3460400    0.00000       Uiso       1.00
       H75          H  0.8843600  0.7944300  0.3213100    0.00000       Uiso       1.00
       H76          H  0.9243400  0.8496000  0.3832100    0.00000       Uiso       1.00
       B77          B  0.7445800  0.1944600  0.8156100    0.00000       Uiso       1.00
       C78          C  0.9010000  0.9484800  0.4028800    0.00000       Uiso       1.00
       O79          O  0.7603900  0.8333400  0.2292600    0.00000       Uiso       1.00
       N80          N  0.4341000  0.0645600  0.0668800    0.00000       Uiso       1.00
       C81          C  0.4659900  0.0339600  0.0336500    0.00000       Uiso       1.00
       H82          H  0.0923300  0.0245400  0.5231000    0.00000       Uiso       1.00
       H83          H  0.9765500  0.0242200  0.4078000    0.00000       Uiso       1.00
       H84          H  0.9761300  0.9083100  0.5237800    0.00000       Uiso       1.00
       C85          C  0.7017900  0.8284200  0.1507700    0.00000       Uiso       1.00
       C86          C  0.6936300  0.8099300  0.1019500    0.00000       Uiso       1.00
       C87          C  0.6586700  0.8331800  0.0702500    0.00000       Uiso       1.00
       C88          C  0.6307800  0.8747600  0.0870400    0.00000       Uiso       1.00
       C89          C  0.6731700  0.8693800  0.1680400    0.00000       Uiso       1.00
       C90          C  0.6376800  0.8921900  0.1365300    0.00000       Uiso       1.00
       H91          H  0.8921300  0.9881800  0.3999600    0.00000       Uiso       1.00
       H92          H  0.7152400  0.7784500  0.0876000    0.00000       Uiso       1.00
       H93          H  0.6539600  0.8191400  0.0322400    0.00000       Uiso       1.00
       H94          H  0.6786900  0.8843600  0.2055700    0.00000       Uiso       1.00
       H95          H  0.6167900  0.9243400  0.1504000    0.00000       Uiso       1.00
       B96          B  0.7445800  0.8055400  0.1843900    0.00000       Uiso       1.00
       C97          C  0.9010000  0.0515200  0.5971200    0.00000       Uiso       1.00
       O98          O  0.7603900  0.1666600  0.7707399    0.00000       Uiso       1.00
       N99          N  0.4341000  0.9354400  0.9331200    0.00000       Uiso       1.00
      C100          C  0.4659900  0.9660400  0.9663500    0.00000       Uiso       1.00
      H101          H  0.0923300  0.9754600  0.4769000    0.00000       Uiso       1.00
      H102          H  0.9765500  0.9757800  0.5922000    0.00000       Uiso       1.00
      H103          H  0.9761300  0.0916900  0.4762200    0.00000       Uiso       1.00
      C104          C  0.7017900  0.1715800  0.8492301    0.00000       Uiso       1.00
      C105          C  0.6936300  0.1900700  0.8980500    0.00000       Uiso       1.00
      C106          C  0.6586700  0.1668200  0.9297500    0.00000       Uiso       1.00
      C107          C  0.6307800  0.1252400  0.9129600    0.00000       Uiso       1.00
      C108          C  0.6731700  0.1306200  0.8319600    0.00000       Uiso       1.00
      C109          C  0.6376800  0.1078100  0.8634700    0.00000       Uiso       1.00
      H110          H  0.8921300  0.0118200  0.6000400    0.00000       Uiso       1.00
      H111          H  0.7152400  0.2215500  0.9124000    0.00000       Uiso       1.00
      H112          H  0.6539600  0.1808600  0.9677600    0.00000       Uiso       1.00
      H113          H  0.6786900  0.1156400  0.7944300    0.00000       Uiso       1.00
      H114          H  0.6167900  0.0756600  0.8496000    0.00000       Uiso       1.00
      B115          B  0.2554200  0.8055400  0.8156100    0.00000       Uiso       1.00
      C116          C  0.0990000  0.0515200  0.4028800    0.00000       Uiso       1.00
      O117          O  0.2396100  0.1666600  0.2292600    0.00000       Uiso       1.00
      N118          N  0.5659000  0.9354400  0.0668800    0.00000       Uiso       1.00
      C119          C  0.5340100  0.9660400  0.0336500    0.00000       Uiso       1.00
      H120          H  0.9076700  0.9754600  0.5231000    0.00000       Uiso       1.00
      H121          H  0.0234500  0.9757800  0.4078000    0.00000       Uiso       1.00
      H122          H  0.0238700  0.0916900  0.5237800    0.00000       Uiso       1.00
      C123          C  0.2982100  0.1715800  0.1507700    0.00000       Uiso       1.00
      C124          C  0.3063700  0.1900700  0.1019500    0.00000       Uiso       1.00
      C125          C  0.3413300  0.1668200  0.0702500    0.00000       Uiso       1.00
      C126          C  0.3692200  0.1252400  0.0870400    0.00000       Uiso       1.00
      C127          C  0.3268300  0.1306200  0.1680400    0.00000       Uiso       1.00
      C128          C  0.3623200  0.1078100  0.1365300    0.00000       Uiso       1.00
      H129          H  0.1078700  0.0118200  0.3999600    0.00000       Uiso       1.00
      H130          H  0.2847600  0.2215500  0.0876000    0.00000       Uiso       1.00
      H131          H  0.3460400  0.1808600  0.0322400    0.00000       Uiso       1.00
      H132          H  0.3213100  0.1156400  0.2055700    0.00000       Uiso       1.00
      H133          H  0.3832100  0.0756600  0.1504000    0.00000       Uiso       1.00
      B134          B  0.2554200  0.1944600  0.1843900    0.00000       Uiso       1.00
      C135          C  0.0990000  0.9484800  0.5971200    0.00000       Uiso       1.00
      O136          O  0.2396100  0.8333400  0.7707399    0.00000       Uiso       1.00
      N137          N  0.5659000  0.0645600  0.9331200    0.00000       Uiso       1.00
      C138          C  0.5340100  0.0339600  0.9663500    0.00000       Uiso       1.00
      H139          H  0.9076700  0.0245400  0.4769000    0.00000       Uiso       1.00
      H140          H  0.0234500  0.0242200  0.5922000    0.00000       Uiso       1.00
      H141          H  0.0238700  0.9083100  0.4762200    0.00000       Uiso       1.00
      C142          C  0.2982100  0.8284200  0.8492301    0.00000       Uiso       1.00
      C143          C  0.3063700  0.8099300  0.8980500    0.00000       Uiso       1.00
      C144          C  0.3413300  0.8331800  0.9297500    0.00000       Uiso       1.00
      C145          C  0.3692200  0.8747600  0.9129600    0.00000       Uiso       1.00
      C146          C  0.3268300  0.8693800  0.8319600    0.00000       Uiso       1.00
      C147          C  0.3623200  0.8921900  0.8634700    0.00000       Uiso       1.00
      H148          H  0.1078700  0.9881800  0.6000400    0.00000       Uiso       1.00
      H149          H  0.2847600  0.7784500  0.9124000    0.00000       Uiso       1.00
      H150          H  0.3460400  0.8191400  0.9677600    0.00000       Uiso       1.00
      H151          H  0.3213100  0.8843600  0.7944300    0.00000       Uiso       1.00
      H152          H  0.3832100  0.9243400  0.8496000    0.00000       Uiso       1.00
      B153          B  0.8156100  0.7445800  0.1944600    0.00000       Uiso       1.00
      C154          C  0.4028800  0.9010000  0.9484800    0.00000       Uiso       1.00
      O155          O  0.2292600  0.7603900  0.8333400    0.00000       Uiso       1.00
      N156          N  0.0668800  0.4341000  0.0645600    0.00000       Uiso       1.00
      C157          C  0.0336500  0.4659900  0.0339600    0.00000       Uiso       1.00
      H158          H  0.5231000  0.0923300  0.0245400    0.00000       Uiso       1.00
      H159          H  0.4078000  0.9765500  0.0242200    0.00000       Uiso       1.00
      H160          H  0.5237800  0.9761300  0.9083100    0.00000       Uiso       1.00
      C161          C  0.1507700  0.7017900  0.8284200    0.00000       Uiso       1.00
      C162          C  0.1019500  0.6936300  0.8099300    0.00000       Uiso       1.00
      C163          C  0.0702500  0.6586700  0.8331800    0.00000       Uiso       1.00
      C164          C  0.0870400  0.6307800  0.8747600    0.00000       Uiso       1.00
      C165          C  0.1680400  0.6731700  0.8693800    0.00000       Uiso       1.00
      C166          C  0.1365300  0.6376800  0.8921900    0.00000       Uiso       1.00
      H167          H  0.3999600  0.8921300  0.9881800    0.00000       Uiso       1.00
      H168          H  0.0876000  0.7152400  0.7784500    0.00000       Uiso       1.00
      H169          H  0.0322400  0.6539600  0.8191400    0.00000       Uiso       1.00
      H170          H  0.2055700  0.6786900  0.8843600    0.00000       Uiso       1.00
      H171          H  0.1504000  0.6167900  0.9243400    0.00000       Uiso       1.00
      B172          B  0.1843900  0.7445800  0.8055400    0.00000       Uiso       1.00
      C173          C  0.5971200  0.9010000  0.0515200    0.00000       Uiso       1.00
      O174          O  0.7707399  0.7603900  0.1666600    0.00000       Uiso       1.00
      N175          N  0.9331200  0.4341000  0.9354400    0.00000       Uiso       1.00
      C176          C  0.9663500  0.4659900  0.9660400    0.00000       Uiso       1.00
      H177          H  0.4769000  0.0923300  0.9754600    0.00000       Uiso       1.00
      H178          H  0.5922000  0.9765500  0.9757800    0.00000       Uiso       1.00
      H179          H  0.4762200  0.9761300  0.0916900    0.00000       Uiso       1.00
      C180          C  0.8492301  0.7017900  0.1715800    0.00000       Uiso       1.00
      C181          C  0.8980500  0.6936300  0.1900700    0.00000       Uiso       1.00
      C182          C  0.9297500  0.6586700  0.1668200    0.00000       Uiso       1.00
      C183          C  0.9129600  0.6307800  0.1252400    0.00000       Uiso       1.00
      C184          C  0.8319600  0.6731700  0.1306200    0.00000       Uiso       1.00
      C185          C  0.8634700  0.6376800  0.1078100    0.00000       Uiso       1.00
      H186          H  0.6000400  0.8921300  0.0118200    0.00000       Uiso       1.00
      H187          H  0.9124000  0.7152400  0.2215500    0.00000       Uiso       1.00
      H188          H  0.9677600  0.6539600  0.1808600    0.00000       Uiso       1.00
      H189          H  0.7944300  0.6786900  0.1156400    0.00000       Uiso       1.00
      H190          H  0.8496000  0.6167900  0.0756600    0.00000       Uiso       1.00
      B191          B  0.8156100  0.2554200  0.8055400    0.00000       Uiso       1.00
      C192          C  0.4028800  0.0990000  0.0515200    0.00000       Uiso       1.00
      O193          O  0.2292600  0.2396100  0.1666600    0.00000       Uiso       1.00
      N194          N  0.0668800  0.5659000  0.9354400    0.00000       Uiso       1.00
      C195          C  0.0336500  0.5340100  0.9660400    0.00000       Uiso       1.00
      H196          H  0.5231000  0.9076700  0.9754600    0.00000       Uiso       1.00
      H197          H  0.4078000  0.0234500  0.9757800    0.00000       Uiso       1.00
      H198          H  0.5237800  0.0238700  0.0916900    0.00000       Uiso       1.00
      C199          C  0.1507700  0.2982100  0.1715800    0.00000       Uiso       1.00
      C200          C  0.1019500  0.3063700  0.1900700    0.00000       Uiso       1.00
      C201          C  0.0702500  0.3413300  0.1668200    0.00000       Uiso       1.00
      C202          C  0.0870400  0.3692200  0.1252400    0.00000       Uiso       1.00
      C203          C  0.1680400  0.3268300  0.1306200    0.00000       Uiso       1.00
      C204          C  0.1365300  0.3623200  0.1078100    0.00000       Uiso       1.00
      H205          H  0.3999600  0.1078700  0.0118200    0.00000       Uiso       1.00
      H206          H  0.0876000  0.2847600  0.2215500    0.00000       Uiso       1.00
      H207          H  0.0322400  0.3460400  0.1808600    0.00000       Uiso       1.00
      H208          H  0.2055700  0.3213100  0.1156400    0.00000       Uiso       1.00
      H209          H  0.1504000  0.3832100  0.0756600    0.00000       Uiso       1.00
      B210          B  0.1843900  0.2554200  0.1944600    0.00000       Uiso       1.00
      C211          C  0.5971200  0.0990000  0.9484800    0.00000       Uiso       1.00
      O212          O  0.7707399  0.2396100  0.8333400    0.00000       Uiso       1.00
      N213          N  0.9331200  0.5659000  0.0645600    0.00000       Uiso       1.00
      C214          C  0.9663500  0.5340100  0.0339600    0.00000       Uiso       1.00
      H215          H  0.4769000  0.9076700  0.0245400    0.00000       Uiso       1.00
      H216          H  0.5922000  0.0234500  0.0242200    0.00000       Uiso       1.00
      H217          H  0.4762200  0.0238700  0.9083100    0.00000       Uiso       1.00
      C218          C  0.8492301  0.2982100  0.8284200    0.00000       Uiso       1.00
      C219          C  0.8980500  0.3063700  0.8099300    0.00000       Uiso       1.00
      C220          C  0.9297500  0.3413300  0.8331800    0.00000       Uiso       1.00
      C221          C  0.9129600  0.3692200  0.8747600    0.00000       Uiso       1.00
      C222          C  0.8319600  0.3268300  0.8693800    0.00000       Uiso       1.00
      C223          C  0.8634700  0.3623200  0.8921900    0.00000       Uiso       1.00
      H224          H  0.6000400  0.1078700  0.9881800    0.00000       Uiso       1.00
      H225          H  0.9124000  0.2847600  0.7784500    0.00000       Uiso       1.00
      H226          H  0.9677600  0.3460400  0.8191400    0.00000       Uiso       1.00
      H227          H  0.7944300  0.3213100  0.8843600    0.00000       Uiso       1.00
      H228          H  0.8496000  0.3832100  0.9243400    0.00000       Uiso       1.00
      C229          C  0.0000000  0.0000000  0.4326600    0.00000       Uiso       1.00
      C230          C  0.0000000  0.0000000  0.5673400    0.00000       Uiso       1.00
      C231          C  0.4326600  0.0000000  0.0000000    0.00000       Uiso       1.00
      C232          C  0.5673400  0.0000000  0.0000000    0.00000       Uiso       1.00
      C233          C  0.0000000  0.4326600  0.0000000    0.00000       Uiso       1.00
      C234          C  0.0000000  0.5673400  0.0000000    0.00000       Uiso       1.00
      C235          C  0.0000000  0.0667600  0.5000000    0.00000       Uiso       1.00
      C236          C  0.0000000  0.9332400  0.5000000    0.00000       Uiso       1.00
      C237          C  0.5000000  0.0000000  0.0667600    0.00000       Uiso       1.00
      C238          C  0.5000000  0.0000000  0.9332400    0.00000       Uiso       1.00
      C239          C  0.0667600  0.5000000  0.0000000    0.00000       Uiso       1.00
      C240          C  0.9332400  0.5000000  0.0000000    0.00000       Uiso       1.00
      C241          C  0.0675500  0.0000000  0.5000000    0.00000       Uiso       1.00
      C242          C  0.9324500  0.0000000  0.5000000    0.00000       Uiso       1.00
      C243          C  0.5000000  0.0675500  0.0000000    0.00000       Uiso       1.00
      C244          C  0.5000000  0.9324500  0.0000000    0.00000       Uiso       1.00
      C245          C  0.0000000  0.5000000  0.0675500    0.00000       Uiso       1.00
      C246          C  0.0000000  0.5000000  0.9324500    0.00000       Uiso       1.00
