data_DL-COF-1-ctn
_audit_creation_date              0000-00-00
_audit_creation_method            'LanYouShi'
_symmetry_space_group_name_H-M    'P1'
_cell_length_a                    41.0115013
_cell_length_b                    41.0115013
_cell_length_c                    41.0115013
_cell_angle_alpha                 90.0000000
_cell_angle_beta                  90.0000000
_cell_angle_gamma                 90.0000000
loop_
_atom_site_label
_atom_site_type_symbol
_atom_site_fract_x
_atom_site_fract_y
_atom_site_fract_z
_atom_site_U_iso_or_equiv
_atom_site_adp_type
_atom_site_occupancy
        N1          N  0.2621100  0.3329500  0.9406300    0.00000       Uiso       1.00
        C2          C  0.2423000  0.3112800  0.9287000    0.00000       Uiso       1.00
        C3          C  0.2557200  0.3530100  0.9695600    0.00000       Uiso       1.00
        B4          B  0.2766300  0.2341400  0.8133401    0.00000       Uiso       1.00
        O5          O  0.2941300  0.8052000  0.7435600    0.00000       Uiso       1.00
        C6          C  0.6251700  0.4755900  0.2140600    0.00000       Uiso       1.00
        H7          H  0.6406500  0.4794600  0.1921000    0.00000       Uiso       1.00
        H8          H  0.6100500  0.4535600  0.2093900    0.00000       Uiso       1.00
        H9          H  0.9347699  0.5215300  0.7463500    0.00000       Uiso       1.00
       C10          C  0.2512200  0.7077700  0.6005000    0.00000       Uiso       1.00
       C11          C  0.2674700  0.7449900  0.6559500    0.00000       Uiso       1.00
       C12          C  0.2308600  0.7332400  0.6108400    0.00000       Uiso       1.00
       C13          C  0.2389600  0.7517900  0.6382700    0.00000       Uiso       1.00
       C14          C  0.2797800  0.7009700  0.6182200    0.00000       Uiso       1.00
       C15          C  0.2877700  0.7193700  0.6457700    0.00000       Uiso       1.00
       H16          H  0.2190300  0.3066800  0.9403300    0.00000       Uiso       1.00
       H17          H  0.2087400  0.7389000  0.5975700    0.00000       Uiso       1.00
       H18          H  0.2228300  0.7713900  0.6455900    0.00000       Uiso       1.00
       H19          H  0.2959100  0.6814100  0.6108600    0.00000       Uiso       1.00
       H20          H  0.3099200  0.7135900  0.6589500    0.00000       Uiso       1.00
       N21          N  0.7621100  0.8329500  0.4406300    0.00000       Uiso       1.00
       C22          C  0.7423000  0.8112800  0.4287000    0.00000       Uiso       1.00
       C23          C  0.7557200  0.8530099  0.4695600    0.00000       Uiso       1.00
       B24          B  0.7766300  0.7341400  0.3133400    0.00000       Uiso       1.00
       O25          O  0.7941301  0.3052000  0.2435600    0.00000       Uiso       1.00
       C26          C  0.1251700  0.9755900  0.7140600    0.00000       Uiso       1.00
       H27          H  0.1406500  0.9794600  0.6921000    0.00000       Uiso       1.00
       H28          H  0.1100500  0.9535600  0.7093900    0.00000       Uiso       1.00
       H29          H  0.4347700  0.0215300  0.2463500    0.00000       Uiso       1.00
       C30          C  0.7512200  0.2077700  0.1005000    0.00000       Uiso       1.00
       C31          C  0.7674700  0.2449900  0.1559500    0.00000       Uiso       1.00
       C32          C  0.7308600  0.2332400  0.1108400    0.00000       Uiso       1.00
       C33          C  0.7389600  0.2517900  0.1382700    0.00000       Uiso       1.00
       C34          C  0.7797800  0.2009700  0.1182200    0.00000       Uiso       1.00
       C35          C  0.7877700  0.2193700  0.1457700    0.00000       Uiso       1.00
       H36          H  0.7190300  0.8066801  0.4403300    0.00000       Uiso       1.00
       H37          H  0.7087400  0.2389000  0.0975700    0.00000       Uiso       1.00
       H38          H  0.7228300  0.2713900  0.1455900    0.00000       Uiso       1.00
       H39          H  0.7959100  0.1814100  0.1108600    0.00000       Uiso       1.00
       H40          H  0.8099200  0.2135900  0.1589500    0.00000       Uiso       1.00
       N41          N  0.2378900  0.6670500  0.4406300    0.00000       Uiso       1.00
       C42          C  0.2577000  0.6887200  0.4287000    0.00000       Uiso       1.00
       C43          C  0.2442800  0.6469900  0.4695600    0.00000       Uiso       1.00
       B44          B  0.2233700  0.7658600  0.3133400    0.00000       Uiso       1.00
       O45          O  0.2058700  0.1948000  0.2435600    0.00000       Uiso       1.00
       C46          C  0.8748301  0.5244100  0.7140600    0.00000       Uiso       1.00
       H47          H  0.8593501  0.5205400  0.6921000    0.00000       Uiso       1.00
       H48          H  0.8899500  0.5464400  0.7093900    0.00000       Uiso       1.00
       H49          H  0.5652300  0.4784700  0.2463500    0.00000       Uiso       1.00
       C50          C  0.2487800  0.2922300  0.1005000    0.00000       Uiso       1.00
       C51          C  0.2325300  0.2550100  0.1559500    0.00000       Uiso       1.00
       C52          C  0.2691400  0.2667600  0.1108400    0.00000       Uiso       1.00
       C53          C  0.2610400  0.2482100  0.1382700    0.00000       Uiso       1.00
       C54          C  0.2202200  0.2990300  0.1182200    0.00000       Uiso       1.00
       C55          C  0.2122300  0.2806300  0.1457700    0.00000       Uiso       1.00
       H56          H  0.2809700  0.6933200  0.4403300    0.00000       Uiso       1.00
       H57          H  0.2912600  0.2611000  0.0975700    0.00000       Uiso       1.00
       H58          H  0.2771700  0.2286100  0.1455900    0.00000       Uiso       1.00
       H59          H  0.2040900  0.3185900  0.1108600    0.00000       Uiso       1.00
       H60          H  0.1900800  0.2864100  0.1589500    0.00000       Uiso       1.00
       N61          N  0.7378900  0.1670500  0.9406300    0.00000       Uiso       1.00
       C62          C  0.7577000  0.1887200  0.9287000    0.00000       Uiso       1.00
       C63          C  0.7442800  0.1469900  0.9695600    0.00000       Uiso       1.00
       B64          B  0.7233700  0.2658600  0.8133401    0.00000       Uiso       1.00
       O65          O  0.7058700  0.6948000  0.7435600    0.00000       Uiso       1.00
       C66          C  0.3748300  0.0244100  0.2140600    0.00000       Uiso       1.00
       H67          H  0.3593500  0.0205400  0.1921000    0.00000       Uiso       1.00
       H68          H  0.3899500  0.0464400  0.2093900    0.00000       Uiso       1.00
       H69          H  0.0652300  0.9784700  0.7463500    0.00000       Uiso       1.00
       C70          C  0.7487800  0.7922301  0.6005000    0.00000       Uiso       1.00
       C71          C  0.7325300  0.7550100  0.6559500    0.00000       Uiso       1.00
       C72          C  0.7691400  0.7667600  0.6108400    0.00000       Uiso       1.00
       C73          C  0.7610400  0.7482100  0.6382700    0.00000       Uiso       1.00
       C74          C  0.7202200  0.7990300  0.6182200    0.00000       Uiso       1.00
       C75          C  0.7122300  0.7806300  0.6457700    0.00000       Uiso       1.00
       H76          H  0.7809700  0.1933200  0.9403300    0.00000       Uiso       1.00
       H77          H  0.7912600  0.7611000  0.5975700    0.00000       Uiso       1.00
       H78          H  0.7771700  0.7286100  0.6455900    0.00000       Uiso       1.00
       H79          H  0.7040900  0.8185900  0.6108600    0.00000       Uiso       1.00
       H80          H  0.6900800  0.7864100  0.6589500    0.00000       Uiso       1.00
       N81          N  0.7378900  0.8329500  0.5593700    0.00000       Uiso       1.00
       C82          C  0.7577000  0.8112800  0.5713000    0.00000       Uiso       1.00
       C83          C  0.7442800  0.8530099  0.5304400    0.00000       Uiso       1.00
       B84          B  0.7233700  0.7341400  0.6866600    0.00000       Uiso       1.00
       O85          O  0.7058700  0.3052000  0.7564400    0.00000       Uiso       1.00
       C86          C  0.3748300  0.9755900  0.2859400    0.00000       Uiso       1.00
       H87          H  0.3593500  0.9794600  0.3079000    0.00000       Uiso       1.00
       H88          H  0.3899500  0.9535600  0.2906100    0.00000       Uiso       1.00
       H89          H  0.0652300  0.0215300  0.7536500    0.00000       Uiso       1.00
       C90          C  0.7487800  0.2077700  0.8995000    0.00000       Uiso       1.00
       C91          C  0.7325300  0.2449900  0.8440500    0.00000       Uiso       1.00
       C92          C  0.7691400  0.2332400  0.8891600    0.00000       Uiso       1.00
       C93          C  0.7610400  0.2517900  0.8617300    0.00000       Uiso       1.00
       C94          C  0.7202200  0.2009700  0.8817801    0.00000       Uiso       1.00
       C95          C  0.7122300  0.2193700  0.8542299    0.00000       Uiso       1.00
       H96          H  0.7809700  0.8066801  0.5596700    0.00000       Uiso       1.00
       H97          H  0.7912600  0.2389000  0.9024300    0.00000       Uiso       1.00
       H98          H  0.7771700  0.2713900  0.8544101    0.00000       Uiso       1.00
       H99          H  0.7040900  0.1814100  0.8891400    0.00000       Uiso       1.00
      H100          H  0.6900800  0.2135900  0.8410500    0.00000       Uiso       1.00
      N101          N  0.2378900  0.3329500  0.0593700    0.00000       Uiso       1.00
      C102          C  0.2577000  0.3112800  0.0713000    0.00000       Uiso       1.00
      C103          C  0.2442800  0.3530100  0.0304400    0.00000       Uiso       1.00
      B104          B  0.2233700  0.2341400  0.1866600    0.00000       Uiso       1.00
      O105          O  0.2058700  0.8052000  0.2564400    0.00000       Uiso       1.00
      C106          C  0.8748301  0.4755900  0.7859400    0.00000       Uiso       1.00
      H107          H  0.8593501  0.4794600  0.8079001    0.00000       Uiso       1.00
      H108          H  0.8899500  0.4535600  0.7906100    0.00000       Uiso       1.00
      H109          H  0.5652300  0.5215300  0.2536500    0.00000       Uiso       1.00
      C110          C  0.2487800  0.7077700  0.3995000    0.00000       Uiso       1.00
      C111          C  0.2325300  0.7449900  0.3440500    0.00000       Uiso       1.00
      C112          C  0.2691400  0.7332400  0.3891600    0.00000       Uiso       1.00
      C113          C  0.2610400  0.7517900  0.3617300    0.00000       Uiso       1.00
      C114          C  0.2202200  0.7009700  0.3817800    0.00000       Uiso       1.00
      C115          C  0.2122300  0.7193700  0.3542300    0.00000       Uiso       1.00
      H116          H  0.2809700  0.3066800  0.0596700    0.00000       Uiso       1.00
      H117          H  0.2912600  0.7389000  0.4024300    0.00000       Uiso       1.00
      H118          H  0.2771700  0.7713900  0.3544100    0.00000       Uiso       1.00
      H119          H  0.2040900  0.6814100  0.3891400    0.00000       Uiso       1.00
      H120          H  0.1900800  0.7135900  0.3410500    0.00000       Uiso       1.00
      N121          N  0.7621100  0.1670500  0.0593700    0.00000       Uiso       1.00
      C122          C  0.7423000  0.1887200  0.0713000    0.00000       Uiso       1.00
      C123          C  0.7557200  0.1469900  0.0304400    0.00000       Uiso       1.00
      B124          B  0.7766300  0.2658600  0.1866600    0.00000       Uiso       1.00
      O125          O  0.7941301  0.6948000  0.2564400    0.00000       Uiso       1.00
      C126          C  0.1251700  0.0244100  0.7859400    0.00000       Uiso       1.00
      H127          H  0.1406500  0.0205400  0.8079001    0.00000       Uiso       1.00
      H128          H  0.1100500  0.0464400  0.7906100    0.00000       Uiso       1.00
      H129          H  0.4347700  0.9784700  0.2536500    0.00000       Uiso       1.00
      C130          C  0.7512200  0.7922301  0.3995000    0.00000       Uiso       1.00
      C131          C  0.7674700  0.7550100  0.3440500    0.00000       Uiso       1.00
      C132          C  0.7308600  0.7667600  0.3891600    0.00000       Uiso       1.00
      C133          C  0.7389600  0.7482100  0.3617300    0.00000       Uiso       1.00
      C134          C  0.7797800  0.7990300  0.3817800    0.00000       Uiso       1.00
      C135          C  0.7877700  0.7806300  0.3542300    0.00000       Uiso       1.00
      H136          H  0.7190300  0.1933200  0.0596700    0.00000       Uiso       1.00
      H137          H  0.7087400  0.7611000  0.4024300    0.00000       Uiso       1.00
      H138          H  0.7228300  0.7286100  0.3544100    0.00000       Uiso       1.00
      H139          H  0.7959100  0.8185900  0.3891400    0.00000       Uiso       1.00
      H140          H  0.8099200  0.7864100  0.3410500    0.00000       Uiso       1.00
      N141          N  0.2621100  0.6670500  0.5593700    0.00000       Uiso       1.00
      C142          C  0.2423000  0.6887200  0.5713000    0.00000       Uiso       1.00
      C143          C  0.2557200  0.6469900  0.5304400    0.00000       Uiso       1.00
      B144          B  0.2766300  0.7658600  0.6866600    0.00000       Uiso       1.00
      O145          O  0.2941300  0.1948000  0.7564400    0.00000       Uiso       1.00
      C146          C  0.6251700  0.5244100  0.2859400    0.00000       Uiso       1.00
      H147          H  0.6406500  0.5205400  0.3079000    0.00000       Uiso       1.00
      H148          H  0.6100500  0.5464400  0.2906100    0.00000       Uiso       1.00
      H149          H  0.9347699  0.4784700  0.7536500    0.00000       Uiso       1.00
      C150          C  0.2512200  0.2922300  0.8995000    0.00000       Uiso       1.00
      C151          C  0.2674700  0.2550100  0.8440500    0.00000       Uiso       1.00
      C152          C  0.2308600  0.2667600  0.8891600    0.00000       Uiso       1.00
      C153          C  0.2389600  0.2482100  0.8617300    0.00000       Uiso       1.00
      C154          C  0.2797800  0.2990300  0.8817801    0.00000       Uiso       1.00
      C155          C  0.2877700  0.2806300  0.8542299    0.00000       Uiso       1.00
      H156          H  0.2190300  0.6933200  0.5596700    0.00000       Uiso       1.00
      H157          H  0.2087400  0.2611000  0.9024300    0.00000       Uiso       1.00
      H158          H  0.2228300  0.2286100  0.8544101    0.00000       Uiso       1.00
      H159          H  0.2959100  0.3185900  0.8891400    0.00000       Uiso       1.00
      H160          H  0.3099200  0.2864100  0.8410500    0.00000       Uiso       1.00
      N161          N  0.9406300  0.2621100  0.3329500    0.00000       Uiso       1.00
      C162          C  0.9287000  0.2423000  0.3112800    0.00000       Uiso       1.00
      C163          C  0.9695600  0.2557200  0.3530100    0.00000       Uiso       1.00
      B164          B  0.8133401  0.2766300  0.2341400    0.00000       Uiso       1.00
      O165          O  0.7435600  0.2941300  0.8052000    0.00000       Uiso       1.00
      C166          C  0.2140600  0.6251700  0.4755900    0.00000       Uiso       1.00
      H167          H  0.1921000  0.6406500  0.4794600    0.00000       Uiso       1.00
      H168          H  0.2093900  0.6100500  0.4535600    0.00000       Uiso       1.00
      H169          H  0.7463500  0.9347699  0.5215300    0.00000       Uiso       1.00
      C170          C  0.6005000  0.2512200  0.7077700    0.00000       Uiso       1.00
      C171          C  0.6559500  0.2674700  0.7449900    0.00000       Uiso       1.00
      C172          C  0.6108400  0.2308600  0.7332400    0.00000       Uiso       1.00
      C173          C  0.6382700  0.2389600  0.7517900    0.00000       Uiso       1.00
      C174          C  0.6182200  0.2797800  0.7009700    0.00000       Uiso       1.00
      C175          C  0.6457700  0.2877700  0.7193700    0.00000       Uiso       1.00
      H176          H  0.9403300  0.2190300  0.3066800    0.00000       Uiso       1.00
      H177          H  0.5975700  0.2087400  0.7389000    0.00000       Uiso       1.00
      H178          H  0.6455900  0.2228300  0.7713900    0.00000       Uiso       1.00
      H179          H  0.6108600  0.2959100  0.6814100    0.00000       Uiso       1.00
      H180          H  0.6589500  0.3099200  0.7135900    0.00000       Uiso       1.00
      N181          N  0.4406300  0.7621100  0.8329500    0.00000       Uiso       1.00
      C182          C  0.4287000  0.7423000  0.8112800    0.00000       Uiso       1.00
      C183          C  0.4695600  0.7557200  0.8530099    0.00000       Uiso       1.00
      B184          B  0.3133400  0.7766300  0.7341400    0.00000       Uiso       1.00
      O185          O  0.2435600  0.7941301  0.3052000    0.00000       Uiso       1.00
      C186          C  0.7140600  0.1251700  0.9755900    0.00000       Uiso       1.00
      H187          H  0.6921000  0.1406500  0.9794600    0.00000       Uiso       1.00
      H188          H  0.7093900  0.1100500  0.9535600    0.00000       Uiso       1.00
      H189          H  0.2463500  0.4347700  0.0215300    0.00000       Uiso       1.00
      C190          C  0.1005000  0.7512200  0.2077700    0.00000       Uiso       1.00
      C191          C  0.1559500  0.7674700  0.2449900    0.00000       Uiso       1.00
      C192          C  0.1108400  0.7308600  0.2332400    0.00000       Uiso       1.00
      C193          C  0.1382700  0.7389600  0.2517900    0.00000       Uiso       1.00
      C194          C  0.1182200  0.7797800  0.2009700    0.00000       Uiso       1.00
      C195          C  0.1457700  0.7877700  0.2193700    0.00000       Uiso       1.00
      H196          H  0.4403300  0.7190300  0.8066801    0.00000       Uiso       1.00
      H197          H  0.0975700  0.7087400  0.2389000    0.00000       Uiso       1.00
      H198          H  0.1455900  0.7228300  0.2713900    0.00000       Uiso       1.00
      H199          H  0.1108600  0.7959100  0.1814100    0.00000       Uiso       1.00
      H200          H  0.1589500  0.8099200  0.2135900    0.00000       Uiso       1.00
      N201          N  0.4406300  0.2378900  0.6670500    0.00000       Uiso       1.00
      C202          C  0.4287000  0.2577000  0.6887200    0.00000       Uiso       1.00
      C203          C  0.4695600  0.2442800  0.6469900    0.00000       Uiso       1.00
      B204          B  0.3133400  0.2233700  0.7658600    0.00000       Uiso       1.00
      O205          O  0.2435600  0.2058700  0.1948000    0.00000       Uiso       1.00
      C206          C  0.7140600  0.8748301  0.5244100    0.00000       Uiso       1.00
      H207          H  0.6921000  0.8593501  0.5205400    0.00000       Uiso       1.00
      H208          H  0.7093900  0.8899500  0.5464400    0.00000       Uiso       1.00
      H209          H  0.2463500  0.5652300  0.4784700    0.00000       Uiso       1.00
      C210          C  0.1005000  0.2487800  0.2922300    0.00000       Uiso       1.00
      C211          C  0.1559500  0.2325300  0.2550100    0.00000       Uiso       1.00
      C212          C  0.1108400  0.2691400  0.2667600    0.00000       Uiso       1.00
      C213          C  0.1382700  0.2610400  0.2482100    0.00000       Uiso       1.00
      C214          C  0.1182200  0.2202200  0.2990300    0.00000       Uiso       1.00
      C215          C  0.1457700  0.2122300  0.2806300    0.00000       Uiso       1.00
      H216          H  0.4403300  0.2809700  0.6933200    0.00000       Uiso       1.00
      H217          H  0.0975700  0.2912600  0.2611000    0.00000       Uiso       1.00
      H218          H  0.1455900  0.2771700  0.2286100    0.00000       Uiso       1.00
      H219          H  0.1108600  0.2040900  0.3185900    0.00000       Uiso       1.00
      H220          H  0.1589500  0.1900800  0.2864100    0.00000       Uiso       1.00
      N221          N  0.9406300  0.7378900  0.1670500    0.00000       Uiso       1.00
      C222          C  0.9287000  0.7577000  0.1887200    0.00000       Uiso       1.00
      C223          C  0.9695600  0.7442800  0.1469900    0.00000       Uiso       1.00
      B224          B  0.8133401  0.7233700  0.2658600    0.00000       Uiso       1.00
      O225          O  0.7435600  0.7058700  0.6948000    0.00000       Uiso       1.00
      C226          C  0.2140600  0.3748300  0.0244100    0.00000       Uiso       1.00
      H227          H  0.1921000  0.3593500  0.0205400    0.00000       Uiso       1.00
      H228          H  0.2093900  0.3899500  0.0464400    0.00000       Uiso       1.00
      H229          H  0.7463500  0.0652300  0.9784700    0.00000       Uiso       1.00
      C230          C  0.6005000  0.7487800  0.7922301    0.00000       Uiso       1.00
      C231          C  0.6559500  0.7325300  0.7550100    0.00000       Uiso       1.00
      C232          C  0.6108400  0.7691400  0.7667600    0.00000       Uiso       1.00
      C233          C  0.6382700  0.7610400  0.7482100    0.00000       Uiso       1.00
      C234          C  0.6182200  0.7202200  0.7990300    0.00000       Uiso       1.00
      C235          C  0.6457700  0.7122300  0.7806300    0.00000       Uiso       1.00
      H236          H  0.9403300  0.7809700  0.1933200    0.00000       Uiso       1.00
      H237          H  0.5975700  0.7912600  0.7611000    0.00000       Uiso       1.00
      H238          H  0.6455900  0.7771700  0.7286100    0.00000       Uiso       1.00
      H239          H  0.6108600  0.7040900  0.8185900    0.00000       Uiso       1.00
      H240          H  0.6589500  0.6900800  0.7864100    0.00000       Uiso       1.00
      N241          N  0.5593700  0.7378900  0.8329500    0.00000       Uiso       1.00
      C242          C  0.5713000  0.7577000  0.8112800    0.00000       Uiso       1.00
      C243          C  0.5304400  0.7442800  0.8530099    0.00000       Uiso       1.00
      B244          B  0.6866600  0.7233700  0.7341400    0.00000       Uiso       1.00
      O245          O  0.7564400  0.7058700  0.3052000    0.00000       Uiso       1.00
      C246          C  0.2859400  0.3748300  0.9755900    0.00000       Uiso       1.00
      H247          H  0.3079000  0.3593500  0.9794600    0.00000       Uiso       1.00
      H248          H  0.2906100  0.3899500  0.9535600    0.00000       Uiso       1.00
      H249          H  0.7536500  0.0652300  0.0215300    0.00000       Uiso       1.00
      C250          C  0.8995000  0.7487800  0.2077700    0.00000       Uiso       1.00
      C251          C  0.8440500  0.7325300  0.2449900    0.00000       Uiso       1.00
      C252          C  0.8891600  0.7691400  0.2332400    0.00000       Uiso       1.00
      C253          C  0.8617300  0.7610400  0.2517900    0.00000       Uiso       1.00
      C254          C  0.8817801  0.7202200  0.2009700    0.00000       Uiso       1.00
      C255          C  0.8542299  0.7122300  0.2193700    0.00000       Uiso       1.00
      H256          H  0.5596700  0.7809700  0.8066801    0.00000       Uiso       1.00
      H257          H  0.9024300  0.7912600  0.2389000    0.00000       Uiso       1.00
      H258          H  0.8544101  0.7771700  0.2713900    0.00000       Uiso       1.00
      H259          H  0.8891400  0.7040900  0.1814100    0.00000       Uiso       1.00
      H260          H  0.8410500  0.6900800  0.2135900    0.00000       Uiso       1.00
      N261          N  0.0593700  0.2378900  0.3329500    0.00000       Uiso       1.00
      C262          C  0.0713000  0.2577000  0.3112800    0.00000       Uiso       1.00
      C263          C  0.0304400  0.2442800  0.3530100    0.00000       Uiso       1.00
      B264          B  0.1866600  0.2233700  0.2341400    0.00000       Uiso       1.00
      O265          O  0.2564400  0.2058700  0.8052000    0.00000       Uiso       1.00
      C266          C  0.7859400  0.8748301  0.4755900    0.00000       Uiso       1.00
      H267          H  0.8079001  0.8593501  0.4794600    0.00000       Uiso       1.00
      H268          H  0.7906100  0.8899500  0.4535600    0.00000       Uiso       1.00
      H269          H  0.2536500  0.5652300  0.5215300    0.00000       Uiso       1.00
      C270          C  0.3995000  0.2487800  0.7077700    0.00000       Uiso       1.00
      C271          C  0.3440500  0.2325300  0.7449900    0.00000       Uiso       1.00
      C272          C  0.3891600  0.2691400  0.7332400    0.00000       Uiso       1.00
      C273          C  0.3617300  0.2610400  0.7517900    0.00000       Uiso       1.00
      C274          C  0.3817800  0.2202200  0.7009700    0.00000       Uiso       1.00
      C275          C  0.3542300  0.2122300  0.7193700    0.00000       Uiso       1.00
      H276          H  0.0596700  0.2809700  0.3066800    0.00000       Uiso       1.00
      H277          H  0.4024300  0.2912600  0.7389000    0.00000       Uiso       1.00
      H278          H  0.3544100  0.2771700  0.7713900    0.00000       Uiso       1.00
      H279          H  0.3891400  0.2040900  0.6814100    0.00000       Uiso       1.00
      H280          H  0.3410500  0.1900800  0.7135900    0.00000       Uiso       1.00
      N281          N  0.0593700  0.7621100  0.1670500    0.00000       Uiso       1.00
      C282          C  0.0713000  0.7423000  0.1887200    0.00000       Uiso       1.00
      C283          C  0.0304400  0.7557200  0.1469900    0.00000       Uiso       1.00
      B284          B  0.1866600  0.7766300  0.2658600    0.00000       Uiso       1.00
      O285          O  0.2564400  0.7941301  0.6948000    0.00000       Uiso       1.00
      C286          C  0.7859400  0.1251700  0.0244100    0.00000       Uiso       1.00
      H287          H  0.8079001  0.1406500  0.0205400    0.00000       Uiso       1.00
      H288          H  0.7906100  0.1100500  0.0464400    0.00000       Uiso       1.00
      H289          H  0.2536500  0.4347700  0.9784700    0.00000       Uiso       1.00
      C290          C  0.3995000  0.7512200  0.7922301    0.00000       Uiso       1.00
      C291          C  0.3440500  0.7674700  0.7550100    0.00000       Uiso       1.00
      C292          C  0.3891600  0.7308600  0.7667600    0.00000       Uiso       1.00
      C293          C  0.3617300  0.7389600  0.7482100    0.00000       Uiso       1.00
      C294          C  0.3817800  0.7797800  0.7990300    0.00000       Uiso       1.00
      C295          C  0.3542300  0.7877700  0.7806300    0.00000       Uiso       1.00
      H296          H  0.0596700  0.7190300  0.1933200    0.00000       Uiso       1.00
      H297          H  0.4024300  0.7087400  0.7611000    0.00000       Uiso       1.00
      H298          H  0.3544100  0.7228300  0.7286100    0.00000       Uiso       1.00
      H299          H  0.3891400  0.7959100  0.8185900    0.00000       Uiso       1.00
      H300          H  0.3410500  0.8099200  0.7864100    0.00000       Uiso       1.00
      N301          N  0.5593700  0.2621100  0.6670500    0.00000       Uiso       1.00
      C302          C  0.5713000  0.2423000  0.6887200    0.00000       Uiso       1.00
      C303          C  0.5304400  0.2557200  0.6469900    0.00000       Uiso       1.00
      B304          B  0.6866600  0.2766300  0.7658600    0.00000       Uiso       1.00
      O305          O  0.7564400  0.2941300  0.1948000    0.00000       Uiso       1.00
      C306          C  0.2859400  0.6251700  0.5244100    0.00000       Uiso       1.00
      H307          H  0.3079000  0.6406500  0.5205400    0.00000       Uiso       1.00
      H308          H  0.2906100  0.6100500  0.5464400    0.00000       Uiso       1.00
      H309          H  0.7536500  0.9347699  0.4784700    0.00000       Uiso       1.00
      C310          C  0.8995000  0.2512200  0.2922300    0.00000       Uiso       1.00
      C311          C  0.8440500  0.2674700  0.2550100    0.00000       Uiso       1.00
      C312          C  0.8891600  0.2308600  0.2667600    0.00000       Uiso       1.00
      C313          C  0.8617300  0.2389600  0.2482100    0.00000       Uiso       1.00
      C314          C  0.8817801  0.2797800  0.2990300    0.00000       Uiso       1.00
      C315          C  0.8542299  0.2877700  0.2806300    0.00000       Uiso       1.00
      H316          H  0.5596700  0.2190300  0.6933200    0.00000       Uiso       1.00
      H317          H  0.9024300  0.2087400  0.2611000    0.00000       Uiso       1.00
      H318          H  0.8544101  0.2228300  0.2286100    0.00000       Uiso       1.00
      H319          H  0.8891400  0.2959100  0.3185900    0.00000       Uiso       1.00
      H320          H  0.8410500  0.3099200  0.2864100    0.00000       Uiso       1.00
      N321          N  0.3329500  0.9406300  0.2621100    0.00000       Uiso       1.00
      C322          C  0.3112800  0.9287000  0.2423000    0.00000       Uiso       1.00
      C323          C  0.3530100  0.9695600  0.2557200    0.00000       Uiso       1.00
      B324          B  0.2341400  0.8133401  0.2766300    0.00000       Uiso       1.00
      O325          O  0.8052000  0.7435600  0.2941300    0.00000       Uiso       1.00
      C326          C  0.4755900  0.2140600  0.6251700    0.00000       Uiso       1.00
      H327          H  0.4794600  0.1921000  0.6406500    0.00000       Uiso       1.00
      H328          H  0.4535600  0.2093900  0.6100500    0.00000       Uiso       1.00
      H329          H  0.5215300  0.7463500  0.9347699    0.00000       Uiso       1.00
      C330          C  0.7077700  0.6005000  0.2512200    0.00000       Uiso       1.00
      C331          C  0.7449900  0.6559500  0.2674700    0.00000       Uiso       1.00
      C332          C  0.7332400  0.6108400  0.2308600    0.00000       Uiso       1.00
      C333          C  0.7517900  0.6382700  0.2389600    0.00000       Uiso       1.00
      C334          C  0.7009700  0.6182200  0.2797800    0.00000       Uiso       1.00
      C335          C  0.7193700  0.6457700  0.2877700    0.00000       Uiso       1.00
      H336          H  0.3066800  0.9403300  0.2190300    0.00000       Uiso       1.00
      H337          H  0.7389000  0.5975700  0.2087400    0.00000       Uiso       1.00
      H338          H  0.7713900  0.6455900  0.2228300    0.00000       Uiso       1.00
      H339          H  0.6814100  0.6108600  0.2959100    0.00000       Uiso       1.00
      H340          H  0.7135900  0.6589500  0.3099200    0.00000       Uiso       1.00
      N341          N  0.8329500  0.4406300  0.7621100    0.00000       Uiso       1.00
      C342          C  0.8112800  0.4287000  0.7423000    0.00000       Uiso       1.00
      C343          C  0.8530099  0.4695600  0.7557200    0.00000       Uiso       1.00
      B344          B  0.7341400  0.3133400  0.7766300    0.00000       Uiso       1.00
      O345          O  0.3052000  0.2435600  0.7941301    0.00000       Uiso       1.00
      C346          C  0.9755900  0.7140600  0.1251700    0.00000       Uiso       1.00
      H347          H  0.9794600  0.6921000  0.1406500    0.00000       Uiso       1.00
      H348          H  0.9535600  0.7093900  0.1100500    0.00000       Uiso       1.00
      H349          H  0.0215300  0.2463500  0.4347700    0.00000       Uiso       1.00
      C350          C  0.2077700  0.1005000  0.7512200    0.00000       Uiso       1.00
      C351          C  0.2449900  0.1559500  0.7674700    0.00000       Uiso       1.00
      C352          C  0.2332400  0.1108400  0.7308600    0.00000       Uiso       1.00
      C353          C  0.2517900  0.1382700  0.7389600    0.00000       Uiso       1.00
      C354          C  0.2009700  0.1182200  0.7797800    0.00000       Uiso       1.00
      C355          C  0.2193700  0.1457700  0.7877700    0.00000       Uiso       1.00
      H356          H  0.8066801  0.4403300  0.7190300    0.00000       Uiso       1.00
      H357          H  0.2389000  0.0975700  0.7087400    0.00000       Uiso       1.00
      H358          H  0.2713900  0.1455900  0.7228300    0.00000       Uiso       1.00
      H359          H  0.1814100  0.1108600  0.7959100    0.00000       Uiso       1.00
      H360          H  0.2135900  0.1589500  0.8099200    0.00000       Uiso       1.00
      N361          N  0.6670500  0.4406300  0.2378900    0.00000       Uiso       1.00
      C362          C  0.6887200  0.4287000  0.2577000    0.00000       Uiso       1.00
      C363          C  0.6469900  0.4695600  0.2442800    0.00000       Uiso       1.00
      B364          B  0.7658600  0.3133400  0.2233700    0.00000       Uiso       1.00
      O365          O  0.1948000  0.2435600  0.2058700    0.00000       Uiso       1.00
      C366          C  0.5244100  0.7140600  0.8748301    0.00000       Uiso       1.00
      H367          H  0.5205400  0.6921000  0.8593501    0.00000       Uiso       1.00
      H368          H  0.5464400  0.7093900  0.8899500    0.00000       Uiso       1.00
      H369          H  0.4784700  0.2463500  0.5652300    0.00000       Uiso       1.00
      C370          C  0.2922300  0.1005000  0.2487800    0.00000       Uiso       1.00
      C371          C  0.2550100  0.1559500  0.2325300    0.00000       Uiso       1.00
      C372          C  0.2667600  0.1108400  0.2691400    0.00000       Uiso       1.00
      C373          C  0.2482100  0.1382700  0.2610400    0.00000       Uiso       1.00
      C374          C  0.2990300  0.1182200  0.2202200    0.00000       Uiso       1.00
      C375          C  0.2806300  0.1457700  0.2122300    0.00000       Uiso       1.00
      H376          H  0.6933200  0.4403300  0.2809700    0.00000       Uiso       1.00
      H377          H  0.2611000  0.0975700  0.2912600    0.00000       Uiso       1.00
      H378          H  0.2286100  0.1455900  0.2771700    0.00000       Uiso       1.00
      H379          H  0.3185900  0.1108600  0.2040900    0.00000       Uiso       1.00
      H380          H  0.2864100  0.1589500  0.1900800    0.00000       Uiso       1.00
      N381          N  0.1670500  0.9406300  0.7378900    0.00000       Uiso       1.00
      C382          C  0.1887200  0.9287000  0.7577000    0.00000       Uiso       1.00
      C383          C  0.1469900  0.9695600  0.7442800    0.00000       Uiso       1.00
      B384          B  0.2658600  0.8133401  0.7233700    0.00000       Uiso       1.00
      O385          O  0.6948000  0.7435600  0.7058700    0.00000       Uiso       1.00
      C386          C  0.0244100  0.2140600  0.3748300    0.00000       Uiso       1.00
      H387          H  0.0205400  0.1921000  0.3593500    0.00000       Uiso       1.00
      H388          H  0.0464400  0.2093900  0.3899500    0.00000       Uiso       1.00
      H389          H  0.9784700  0.7463500  0.0652300    0.00000       Uiso       1.00
      C390          C  0.7922301  0.6005000  0.7487800    0.00000       Uiso       1.00
      C391          C  0.7550100  0.6559500  0.7325300    0.00000       Uiso       1.00
      C392          C  0.7667600  0.6108400  0.7691400    0.00000       Uiso       1.00
      C393          C  0.7482100  0.6382700  0.7610400    0.00000       Uiso       1.00
      C394          C  0.7990300  0.6182200  0.7202200    0.00000       Uiso       1.00
      C395          C  0.7806300  0.6457700  0.7122300    0.00000       Uiso       1.00
      H396          H  0.1933200  0.9403300  0.7809700    0.00000       Uiso       1.00
      H397          H  0.7611000  0.5975700  0.7912600    0.00000       Uiso       1.00
      H398          H  0.7286100  0.6455900  0.7771700    0.00000       Uiso       1.00
      H399          H  0.8185900  0.6108600  0.7040900    0.00000       Uiso       1.00
      H400          H  0.7864100  0.6589500  0.6900800    0.00000       Uiso       1.00
      N401          N  0.8329500  0.5593700  0.7378900    0.00000       Uiso       1.00
      C402          C  0.8112800  0.5713000  0.7577000    0.00000       Uiso       1.00
      C403          C  0.8530099  0.5304400  0.7442800    0.00000       Uiso       1.00
      B404          B  0.7341400  0.6866600  0.7233700    0.00000       Uiso       1.00
      O405          O  0.3052000  0.7564400  0.7058700    0.00000       Uiso       1.00
      C406          C  0.9755900  0.2859400  0.3748300    0.00000       Uiso       1.00
      H407          H  0.9794600  0.3079000  0.3593500    0.00000       Uiso       1.00
      H408          H  0.9535600  0.2906100  0.3899500    0.00000       Uiso       1.00
      H409          H  0.0215300  0.7536500  0.0652300    0.00000       Uiso       1.00
      C410          C  0.2077700  0.8995000  0.7487800    0.00000       Uiso       1.00
      C411          C  0.2449900  0.8440500  0.7325300    0.00000       Uiso       1.00
      C412          C  0.2332400  0.8891600  0.7691400    0.00000       Uiso       1.00
      C413          C  0.2517900  0.8617300  0.7610400    0.00000       Uiso       1.00
      C414          C  0.2009700  0.8817801  0.7202200    0.00000       Uiso       1.00
      C415          C  0.2193700  0.8542299  0.7122300    0.00000       Uiso       1.00
      H416          H  0.8066801  0.5596700  0.7809700    0.00000       Uiso       1.00
      H417          H  0.2389000  0.9024300  0.7912600    0.00000       Uiso       1.00
      H418          H  0.2713900  0.8544101  0.7771700    0.00000       Uiso       1.00
      H419          H  0.1814100  0.8891400  0.7040900    0.00000       Uiso       1.00
      H420          H  0.2135900  0.8410500  0.6900800    0.00000       Uiso       1.00
      N421          N  0.3329500  0.0593700  0.2378900    0.00000       Uiso       1.00
      C422          C  0.3112800  0.0713000  0.2577000    0.00000       Uiso       1.00
      C423          C  0.3530100  0.0304400  0.2442800    0.00000       Uiso       1.00
      B424          B  0.2341400  0.1866600  0.2233700    0.00000       Uiso       1.00
      O425          O  0.8052000  0.2564400  0.2058700    0.00000       Uiso       1.00
      C426          C  0.4755900  0.7859400  0.8748301    0.00000       Uiso       1.00
      H427          H  0.4794600  0.8079001  0.8593501    0.00000       Uiso       1.00
      H428          H  0.4535600  0.7906100  0.8899500    0.00000       Uiso       1.00
      H429          H  0.5215300  0.2536500  0.5652300    0.00000       Uiso       1.00
      C430          C  0.7077700  0.3995000  0.2487800    0.00000       Uiso       1.00
      C431          C  0.7449900  0.3440500  0.2325300    0.00000       Uiso       1.00
      C432          C  0.7332400  0.3891600  0.2691400    0.00000       Uiso       1.00
      C433          C  0.7517900  0.3617300  0.2610400    0.00000       Uiso       1.00
      C434          C  0.7009700  0.3817800  0.2202200    0.00000       Uiso       1.00
      C435          C  0.7193700  0.3542300  0.2122300    0.00000       Uiso       1.00
      H436          H  0.3066800  0.0596700  0.2809700    0.00000       Uiso       1.00
      H437          H  0.7389000  0.4024300  0.2912600    0.00000       Uiso       1.00
      H438          H  0.7713900  0.3544100  0.2771700    0.00000       Uiso       1.00
      H439          H  0.6814100  0.3891400  0.2040900    0.00000       Uiso       1.00
      H440          H  0.7135900  0.3410500  0.1900800    0.00000       Uiso       1.00
      N441          N  0.1670500  0.0593700  0.7621100    0.00000       Uiso       1.00
      C442          C  0.1887200  0.0713000  0.7423000    0.00000       Uiso       1.00
      C443          C  0.1469900  0.0304400  0.7557200    0.00000       Uiso       1.00
      B444          B  0.2658600  0.1866600  0.7766300    0.00000       Uiso       1.00
      O445          O  0.6948000  0.2564400  0.7941301    0.00000       Uiso       1.00
      C446          C  0.0244100  0.7859400  0.1251700    0.00000       Uiso       1.00
      H447          H  0.0205400  0.8079001  0.1406500    0.00000       Uiso       1.00
      H448          H  0.0464400  0.7906100  0.1100500    0.00000       Uiso       1.00
      H449          H  0.9784700  0.2536500  0.4347700    0.00000       Uiso       1.00
      C450          C  0.7922301  0.3995000  0.7512200    0.00000       Uiso       1.00
      C451          C  0.7550100  0.3440500  0.7674700    0.00000       Uiso       1.00
      C452          C  0.7667600  0.3891600  0.7308600    0.00000       Uiso       1.00
      C453          C  0.7482100  0.3617300  0.7389600    0.00000       Uiso       1.00
      C454          C  0.7990300  0.3817800  0.7797800    0.00000       Uiso       1.00
      C455          C  0.7806300  0.3542300  0.7877700    0.00000       Uiso       1.00
      H456          H  0.1933200  0.0596700  0.7190300    0.00000       Uiso       1.00
      H457          H  0.7611000  0.4024300  0.7087400    0.00000       Uiso       1.00
      H458          H  0.7286100  0.3544100  0.7228300    0.00000       Uiso       1.00
      H459          H  0.8185900  0.3891400  0.7959100    0.00000       Uiso       1.00
      H460          H  0.7864100  0.3410500  0.8099200    0.00000       Uiso       1.00
      N461          N  0.6670500  0.5593700  0.2621100    0.00000       Uiso       1.00
      C462          C  0.6887200  0.5713000  0.2423000    0.00000       Uiso       1.00
      C463          C  0.6469900  0.5304400  0.2557200    0.00000       Uiso       1.00
      B464          B  0.7658600  0.6866600  0.2766300    0.00000       Uiso       1.00
      O465          O  0.1948000  0.7564400  0.2941300    0.00000       Uiso       1.00
      C466          C  0.5244100  0.2859400  0.6251700    0.00000       Uiso       1.00
      H467          H  0.5205400  0.3079000  0.6406500    0.00000       Uiso       1.00
      H468          H  0.5464400  0.2906100  0.6100500    0.00000       Uiso       1.00
      H469          H  0.4784700  0.7536500  0.9347699    0.00000       Uiso       1.00
      C470          C  0.2922300  0.8995000  0.2512200    0.00000       Uiso       1.00
      C471          C  0.2550100  0.8440500  0.2674700    0.00000       Uiso       1.00
      C472          C  0.2667600  0.8891600  0.2308600    0.00000       Uiso       1.00
      C473          C  0.2482100  0.8617300  0.2389600    0.00000       Uiso       1.00
      C474          C  0.2990300  0.8817801  0.2797800    0.00000       Uiso       1.00
      C475          C  0.2806300  0.8542299  0.2877700    0.00000       Uiso       1.00
      H476          H  0.6933200  0.5596700  0.2190300    0.00000       Uiso       1.00
      H477          H  0.2611000  0.9024300  0.2087400    0.00000       Uiso       1.00
      H478          H  0.2286100  0.8544101  0.2228300    0.00000       Uiso       1.00
      H479          H  0.3185900  0.8891400  0.2959100    0.00000       Uiso       1.00
      H480          H  0.2864100  0.8410500  0.3099200    0.00000       Uiso       1.00
      N481          N  0.5829500  0.5121100  0.1906300    0.00000       Uiso       1.00
      C482          C  0.5612800  0.4923000  0.1787000    0.00000       Uiso       1.00
      C483          C  0.6030100  0.5057200  0.2195600    0.00000       Uiso       1.00
      B484          B  0.4841400  0.5266300  0.0633400    0.00000       Uiso       1.00
      O485          O  0.0552000  0.5441300  0.9935600    0.00000       Uiso       1.00
      C486          C  0.7255900  0.8751700  0.4640600    0.00000       Uiso       1.00
      H487          H  0.7294600  0.8906500  0.4421000    0.00000       Uiso       1.00
      H488          H  0.7035600  0.8600500  0.4593900    0.00000       Uiso       1.00
      H489          H  0.7715300  0.1847700  0.9963500    0.00000       Uiso       1.00
      C490          C  0.9577700  0.5012200  0.8504999    0.00000       Uiso       1.00
      C491          C  0.9949900  0.5174700  0.9059500    0.00000       Uiso       1.00
      C492          C  0.9832400  0.4808600  0.8608400    0.00000       Uiso       1.00
      C493          C  0.0017900  0.4889600  0.8882700    0.00000       Uiso       1.00
      C494          C  0.9509699  0.5297800  0.8682200    0.00000       Uiso       1.00
      C495          C  0.9693699  0.5377700  0.8957700    0.00000       Uiso       1.00
      H496          H  0.5566800  0.4690300  0.1903300    0.00000       Uiso       1.00
      H497          H  0.9889000  0.4587400  0.8475699    0.00000       Uiso       1.00
      H498          H  0.0213900  0.4728300  0.8955901    0.00000       Uiso       1.00
      H499          H  0.9314101  0.5459100  0.8608600    0.00000       Uiso       1.00
      H500          H  0.9635900  0.5599200  0.9089500    0.00000       Uiso       1.00
      N501          N  0.0829500  0.0121100  0.6906300    0.00000       Uiso       1.00
      C502          C  0.0612800  0.9923000  0.6787000    0.00000       Uiso       1.00
      C503          C  0.1030100  0.0057200  0.7195600    0.00000       Uiso       1.00
      B504          B  0.9841400  0.0266300  0.5633400    0.00000       Uiso       1.00
      O505          O  0.5552000  0.0441300  0.4935600    0.00000       Uiso       1.00
      C506          C  0.2255900  0.3751700  0.9640600    0.00000       Uiso       1.00
      H507          H  0.2294600  0.3906500  0.9421000    0.00000       Uiso       1.00
      H508          H  0.2035600  0.3600500  0.9593900    0.00000       Uiso       1.00
      H509          H  0.2715300  0.6847700  0.4963500    0.00000       Uiso       1.00
      C510          C  0.4577700  0.0012200  0.3505000    0.00000       Uiso       1.00
      C511          C  0.4949900  0.0174700  0.4059500    0.00000       Uiso       1.00
      C512          C  0.4832400  0.9808599  0.3608400    0.00000       Uiso       1.00
      C513          C  0.5017900  0.9889600  0.3882700    0.00000       Uiso       1.00
      C514          C  0.4509700  0.0297800  0.3682200    0.00000       Uiso       1.00
      C515          C  0.4693700  0.0377700  0.3957700    0.00000       Uiso       1.00
      H516          H  0.0566800  0.9690300  0.6903300    0.00000       Uiso       1.00
      H517          H  0.4889000  0.9587400  0.3475700    0.00000       Uiso       1.00
      H518          H  0.5213900  0.9728301  0.3955900    0.00000       Uiso       1.00
      H519          H  0.4314100  0.0459100  0.3608600    0.00000       Uiso       1.00
      H520          H  0.4635900  0.0599200  0.4089500    0.00000       Uiso       1.00
      N521          N  0.9170500  0.4878900  0.6906300    0.00000       Uiso       1.00
      C522          C  0.9387200  0.5077000  0.6787000    0.00000       Uiso       1.00
      C523          C  0.8969900  0.4942800  0.7195600    0.00000       Uiso       1.00
      B524          B  0.0158600  0.4733700  0.5633400    0.00000       Uiso       1.00
      O525          O  0.4448000  0.4558700  0.4935600    0.00000       Uiso       1.00
      C526          C  0.7744100  0.1248300  0.9640600    0.00000       Uiso       1.00
      H527          H  0.7705400  0.1093500  0.9421000    0.00000       Uiso       1.00
      H528          H  0.7964400  0.1399500  0.9593900    0.00000       Uiso       1.00
      H529          H  0.7284700  0.8152300  0.4963500    0.00000       Uiso       1.00
      C530          C  0.5422300  0.4987800  0.3505000    0.00000       Uiso       1.00
      C531          C  0.5050100  0.4825300  0.4059500    0.00000       Uiso       1.00
      C532          C  0.5167600  0.5191400  0.3608400    0.00000       Uiso       1.00
      C533          C  0.4982100  0.5110400  0.3882700    0.00000       Uiso       1.00
      C534          C  0.5490300  0.4702200  0.3682200    0.00000       Uiso       1.00
      C535          C  0.5306300  0.4622300  0.3957700    0.00000       Uiso       1.00
      H536          H  0.9433200  0.5309700  0.6903300    0.00000       Uiso       1.00
      H537          H  0.5111000  0.5412600  0.3475700    0.00000       Uiso       1.00
      H538          H  0.4786100  0.5271700  0.3955900    0.00000       Uiso       1.00
      H539          H  0.5685900  0.4540900  0.3608600    0.00000       Uiso       1.00
      H540          H  0.5364100  0.4400800  0.4089500    0.00000       Uiso       1.00
      N541          N  0.4170500  0.9878899  0.1906300    0.00000       Uiso       1.00
      C542          C  0.4387200  0.0077000  0.1787000    0.00000       Uiso       1.00
      C543          C  0.3969900  0.9942800  0.2195600    0.00000       Uiso       1.00
      B544          B  0.5158600  0.9733700  0.0633400    0.00000       Uiso       1.00
      O545          O  0.9448000  0.9558700  0.9935600    0.00000       Uiso       1.00
      C546          C  0.2744100  0.6248300  0.4640600    0.00000       Uiso       1.00
      H547          H  0.2705400  0.6093500  0.4421000    0.00000       Uiso       1.00
      H548          H  0.2964400  0.6399500  0.4593900    0.00000       Uiso       1.00
      H549          H  0.2284700  0.3152300  0.9963500    0.00000       Uiso       1.00
      C550          C  0.0422300  0.9987800  0.8504999    0.00000       Uiso       1.00
      C551          C  0.0050100  0.9825299  0.9059500    0.00000       Uiso       1.00
      C552          C  0.0167600  0.0191400  0.8608400    0.00000       Uiso       1.00
      C553          C  0.9982100  0.0110400  0.8882700    0.00000       Uiso       1.00
      C554          C  0.0490300  0.9702200  0.8682200    0.00000       Uiso       1.00
      C555          C  0.0306300  0.9622300  0.8957700    0.00000       Uiso       1.00
      H556          H  0.4433200  0.0309700  0.1903300    0.00000       Uiso       1.00
      H557          H  0.0111000  0.0412600  0.8475699    0.00000       Uiso       1.00
      H558          H  0.9786100  0.0271700  0.8955901    0.00000       Uiso       1.00
      H559          H  0.0685900  0.9540900  0.8608600    0.00000       Uiso       1.00
      H560          H  0.0364100  0.9400800  0.9089500    0.00000       Uiso       1.00
      N561          N  0.0829500  0.9878899  0.8093700    0.00000       Uiso       1.00
      C562          C  0.0612800  0.0077000  0.8213000    0.00000       Uiso       1.00
      C563          C  0.1030100  0.9942800  0.7804400    0.00000       Uiso       1.00
      B564          B  0.9841400  0.9733700  0.9366600    0.00000       Uiso       1.00
      O565          O  0.5552000  0.9558700  0.0064400    0.00000       Uiso       1.00
      C566          C  0.2255900  0.6248300  0.5359400    0.00000       Uiso       1.00
      H567          H  0.2294600  0.6093500  0.5579000    0.00000       Uiso       1.00
      H568          H  0.2035600  0.6399500  0.5406100    0.00000       Uiso       1.00
      H569          H  0.2715300  0.3152300  0.0036500    0.00000       Uiso       1.00
      C570          C  0.4577700  0.9987800  0.1495000    0.00000       Uiso       1.00
      C571          C  0.4949900  0.9825299  0.0940500    0.00000       Uiso       1.00
      C572          C  0.4832400  0.0191400  0.1391600    0.00000       Uiso       1.00
      C573          C  0.5017900  0.0110400  0.1117300    0.00000       Uiso       1.00
      C574          C  0.4509700  0.9702200  0.1317800    0.00000       Uiso       1.00
      C575          C  0.4693700  0.9622300  0.1042300    0.00000       Uiso       1.00
      H576          H  0.0566800  0.0309700  0.8096700    0.00000       Uiso       1.00
      H577          H  0.4889000  0.0412600  0.1524300    0.00000       Uiso       1.00
      H578          H  0.5213900  0.0271700  0.1044100    0.00000       Uiso       1.00
      H579          H  0.4314100  0.9540900  0.1391400    0.00000       Uiso       1.00
      H580          H  0.4635900  0.9400800  0.0910500    0.00000       Uiso       1.00
      N581          N  0.5829500  0.4878900  0.3093700    0.00000       Uiso       1.00
      C582          C  0.5612800  0.5077000  0.3213000    0.00000       Uiso       1.00
      C583          C  0.6030100  0.4942800  0.2804400    0.00000       Uiso       1.00
      B584          B  0.4841400  0.4733700  0.4366600    0.00000       Uiso       1.00
      O585          O  0.0552000  0.4558700  0.5064400    0.00000       Uiso       1.00
      C586          C  0.7255900  0.1248300  0.0359400    0.00000       Uiso       1.00
      H587          H  0.7294600  0.1093500  0.0579000    0.00000       Uiso       1.00
      H588          H  0.7035600  0.1399500  0.0406100    0.00000       Uiso       1.00
      H589          H  0.7715300  0.8152300  0.5036500    0.00000       Uiso       1.00
      C590          C  0.9577700  0.4987800  0.6495000    0.00000       Uiso       1.00
      C591          C  0.9949900  0.4825300  0.5940500    0.00000       Uiso       1.00
      C592          C  0.9832400  0.5191400  0.6391600    0.00000       Uiso       1.00
      C593          C  0.0017900  0.5110400  0.6117300    0.00000       Uiso       1.00
      C594          C  0.9509699  0.4702200  0.6317800    0.00000       Uiso       1.00
      C595          C  0.9693699  0.4622300  0.6042300    0.00000       Uiso       1.00
      H596          H  0.5566800  0.5309700  0.3096700    0.00000       Uiso       1.00
      H597          H  0.9889000  0.5412600  0.6524300    0.00000       Uiso       1.00
      H598          H  0.0213900  0.5271700  0.6044100    0.00000       Uiso       1.00
      H599          H  0.9314101  0.4540900  0.6391400    0.00000       Uiso       1.00
      H600          H  0.9635900  0.4400800  0.5910500    0.00000       Uiso       1.00
      N601          N  0.4170500  0.0121100  0.3093700    0.00000       Uiso       1.00
      C602          C  0.4387200  0.9923000  0.3213000    0.00000       Uiso       1.00
      C603          C  0.3969900  0.0057200  0.2804400    0.00000       Uiso       1.00
      B604          B  0.5158600  0.0266300  0.4366600    0.00000       Uiso       1.00
      O605          O  0.9448000  0.0441300  0.5064400    0.00000       Uiso       1.00
      C606          C  0.2744100  0.3751700  0.0359400    0.00000       Uiso       1.00
      H607          H  0.2705400  0.3906500  0.0579000    0.00000       Uiso       1.00
      H608          H  0.2964400  0.3600500  0.0406100    0.00000       Uiso       1.00
      H609          H  0.2284700  0.6847700  0.5036500    0.00000       Uiso       1.00
      C610          C  0.0422300  0.0012200  0.6495000    0.00000       Uiso       1.00
      C611          C  0.0050100  0.0174700  0.5940500    0.00000       Uiso       1.00
      C612          C  0.0167600  0.9808599  0.6391600    0.00000       Uiso       1.00
      C613          C  0.9982100  0.9889600  0.6117300    0.00000       Uiso       1.00
      C614          C  0.0490300  0.0297800  0.6317800    0.00000       Uiso       1.00
      C615          C  0.0306300  0.0377700  0.6042300    0.00000       Uiso       1.00
      H616          H  0.4433200  0.9690300  0.3096700    0.00000       Uiso       1.00
      H617          H  0.0111000  0.9587400  0.6524300    0.00000       Uiso       1.00
      H618          H  0.9786100  0.9728301  0.6044100    0.00000       Uiso       1.00
      H619          H  0.0685900  0.0459100  0.6391400    0.00000       Uiso       1.00
      H620          H  0.0364100  0.0599200  0.5910500    0.00000       Uiso       1.00
      N621          N  0.9170500  0.5121100  0.8093700    0.00000       Uiso       1.00
      C622          C  0.9387200  0.4923000  0.8213000    0.00000       Uiso       1.00
      C623          C  0.8969900  0.5057200  0.7804400    0.00000       Uiso       1.00
      B624          B  0.0158600  0.5266300  0.9366600    0.00000       Uiso       1.00
      O625          O  0.4448000  0.5441300  0.0064400    0.00000       Uiso       1.00
      C626          C  0.7744100  0.8751700  0.5359400    0.00000       Uiso       1.00
      H627          H  0.7705400  0.8906500  0.5579000    0.00000       Uiso       1.00
      H628          H  0.7964400  0.8600500  0.5406100    0.00000       Uiso       1.00
      H629          H  0.7284700  0.1847700  0.0036500    0.00000       Uiso       1.00
      C630          C  0.5422300  0.5012200  0.1495000    0.00000       Uiso       1.00
      C631          C  0.5050100  0.5174700  0.0940500    0.00000       Uiso       1.00
      C632          C  0.5167600  0.4808600  0.1391600    0.00000       Uiso       1.00
      C633          C  0.4982100  0.4889600  0.1117300    0.00000       Uiso       1.00
      C634          C  0.5490300  0.5297800  0.1317800    0.00000       Uiso       1.00
      C635          C  0.5306300  0.5377700  0.1042300    0.00000       Uiso       1.00
      H636          H  0.9433200  0.4690300  0.8096700    0.00000       Uiso       1.00
      H637          H  0.5111000  0.4587400  0.1524300    0.00000       Uiso       1.00
      H638          H  0.4786100  0.4728300  0.1044100    0.00000       Uiso       1.00
      H639          H  0.5685900  0.5459100  0.1391400    0.00000       Uiso       1.00
      H640          H  0.5364100  0.5599200  0.0910500    0.00000       Uiso       1.00
      N641          N  0.5121100  0.1906300  0.5829500    0.00000       Uiso       1.00
      C642          C  0.4923000  0.1787000  0.5612800    0.00000       Uiso       1.00
      C643          C  0.5057200  0.2195600  0.6030100    0.00000       Uiso       1.00
      B644          B  0.5266300  0.0633400  0.4841400    0.00000       Uiso       1.00
      O645          O  0.5441300  0.9935600  0.0552000    0.00000       Uiso       1.00
      C646          C  0.8751700  0.4640600  0.7255900    0.00000       Uiso       1.00
      H647          H  0.8906500  0.4421000  0.7294600    0.00000       Uiso       1.00
      H648          H  0.8600500  0.4593900  0.7035600    0.00000       Uiso       1.00
      H649          H  0.1847700  0.9963500  0.7715300    0.00000       Uiso       1.00
      C650          C  0.5012200  0.8504999  0.9577700    0.00000       Uiso       1.00
      C651          C  0.5174700  0.9059500  0.9949900    0.00000       Uiso       1.00
      C652          C  0.4808600  0.8608400  0.9832400    0.00000       Uiso       1.00
      C653          C  0.4889600  0.8882700  0.0017900    0.00000       Uiso       1.00
      C654          C  0.5297800  0.8682200  0.9509699    0.00000       Uiso       1.00
      C655          C  0.5377700  0.8957700  0.9693699    0.00000       Uiso       1.00
      H656          H  0.4690300  0.1903300  0.5566800    0.00000       Uiso       1.00
      H657          H  0.4587400  0.8475699  0.9889000    0.00000       Uiso       1.00
      H658          H  0.4728300  0.8955901  0.0213900    0.00000       Uiso       1.00
      H659          H  0.5459100  0.8608600  0.9314101    0.00000       Uiso       1.00
      H660          H  0.5599200  0.9089500  0.9635900    0.00000       Uiso       1.00
      N661          N  0.0121100  0.6906300  0.0829500    0.00000       Uiso       1.00
      C662          C  0.9923000  0.6787000  0.0612800    0.00000       Uiso       1.00
      C663          C  0.0057200  0.7195600  0.1030100    0.00000       Uiso       1.00
      B664          B  0.0266300  0.5633400  0.9841400    0.00000       Uiso       1.00
      O665          O  0.0441300  0.4935600  0.5552000    0.00000       Uiso       1.00
      C666          C  0.3751700  0.9640600  0.2255900    0.00000       Uiso       1.00
      H667          H  0.3906500  0.9421000  0.2294600    0.00000       Uiso       1.00
      H668          H  0.3600500  0.9593900  0.2035600    0.00000       Uiso       1.00
      H669          H  0.6847700  0.4963500  0.2715300    0.00000       Uiso       1.00
      C670          C  0.0012200  0.3505000  0.4577700    0.00000       Uiso       1.00
      C671          C  0.0174700  0.4059500  0.4949900    0.00000       Uiso       1.00
      C672          C  0.9808599  0.3608400  0.4832400    0.00000       Uiso       1.00
      C673          C  0.9889600  0.3882700  0.5017900    0.00000       Uiso       1.00
      C674          C  0.0297800  0.3682200  0.4509700    0.00000       Uiso       1.00
      C675          C  0.0377700  0.3957700  0.4693700    0.00000       Uiso       1.00
      H676          H  0.9690300  0.6903300  0.0566800    0.00000       Uiso       1.00
      H677          H  0.9587400  0.3475700  0.4889000    0.00000       Uiso       1.00
      H678          H  0.9728301  0.3955900  0.5213900    0.00000       Uiso       1.00
      H679          H  0.0459100  0.3608600  0.4314100    0.00000       Uiso       1.00
      H680          H  0.0599200  0.4089500  0.4635900    0.00000       Uiso       1.00
      N681          N  0.4878900  0.6906300  0.9170500    0.00000       Uiso       1.00
      C682          C  0.5077000  0.6787000  0.9387200    0.00000       Uiso       1.00
      C683          C  0.4942800  0.7195600  0.8969900    0.00000       Uiso       1.00
      B684          B  0.4733700  0.5633400  0.0158600    0.00000       Uiso       1.00
      O685          O  0.4558700  0.4935600  0.4448000    0.00000       Uiso       1.00
      C686          C  0.1248300  0.9640600  0.7744100    0.00000       Uiso       1.00
      H687          H  0.1093500  0.9421000  0.7705400    0.00000       Uiso       1.00
      H688          H  0.1399500  0.9593900  0.7964400    0.00000       Uiso       1.00
      H689          H  0.8152300  0.4963500  0.7284700    0.00000       Uiso       1.00
      C690          C  0.4987800  0.3505000  0.5422300    0.00000       Uiso       1.00
      C691          C  0.4825300  0.4059500  0.5050100    0.00000       Uiso       1.00
      C692          C  0.5191400  0.3608400  0.5167600    0.00000       Uiso       1.00
      C693          C  0.5110400  0.3882700  0.4982100    0.00000       Uiso       1.00
      C694          C  0.4702200  0.3682200  0.5490300    0.00000       Uiso       1.00
      C695          C  0.4622300  0.3957700  0.5306300    0.00000       Uiso       1.00
      H696          H  0.5309700  0.6903300  0.9433200    0.00000       Uiso       1.00
      H697          H  0.5412600  0.3475700  0.5111000    0.00000       Uiso       1.00
      H698          H  0.5271700  0.3955900  0.4786100    0.00000       Uiso       1.00
      H699          H  0.4540900  0.3608600  0.5685900    0.00000       Uiso       1.00
      H700          H  0.4400800  0.4089500  0.5364100    0.00000       Uiso       1.00
      N701          N  0.9878899  0.1906300  0.4170500    0.00000       Uiso       1.00
      C702          C  0.0077000  0.1787000  0.4387200    0.00000       Uiso       1.00
      C703          C  0.9942800  0.2195600  0.3969900    0.00000       Uiso       1.00
      B704          B  0.9733700  0.0633400  0.5158600    0.00000       Uiso       1.00
      O705          O  0.9558700  0.9935600  0.9448000    0.00000       Uiso       1.00
      C706          C  0.6248300  0.4640600  0.2744100    0.00000       Uiso       1.00
      H707          H  0.6093500  0.4421000  0.2705400    0.00000       Uiso       1.00
      H708          H  0.6399500  0.4593900  0.2964400    0.00000       Uiso       1.00
      H709          H  0.3152300  0.9963500  0.2284700    0.00000       Uiso       1.00
      C710          C  0.9987800  0.8504999  0.0422300    0.00000       Uiso       1.00
      C711          C  0.9825299  0.9059500  0.0050100    0.00000       Uiso       1.00
      C712          C  0.0191400  0.8608400  0.0167600    0.00000       Uiso       1.00
      C713          C  0.0110400  0.8882700  0.9982100    0.00000       Uiso       1.00
      C714          C  0.9702200  0.8682200  0.0490300    0.00000       Uiso       1.00
      C715          C  0.9622300  0.8957700  0.0306300    0.00000       Uiso       1.00
      H716          H  0.0309700  0.1903300  0.4433200    0.00000       Uiso       1.00
      H717          H  0.0412600  0.8475699  0.0111000    0.00000       Uiso       1.00
      H718          H  0.0271700  0.8955901  0.9786100    0.00000       Uiso       1.00
      H719          H  0.9540900  0.8608600  0.0685900    0.00000       Uiso       1.00
      H720          H  0.9400800  0.9089500  0.0364100    0.00000       Uiso       1.00
      N721          N  0.9878899  0.8093700  0.0829500    0.00000       Uiso       1.00
      C722          C  0.0077000  0.8213000  0.0612800    0.00000       Uiso       1.00
      C723          C  0.9942800  0.7804400  0.1030100    0.00000       Uiso       1.00
      B724          B  0.9733700  0.9366600  0.9841400    0.00000       Uiso       1.00
      O725          O  0.9558700  0.0064400  0.5552000    0.00000       Uiso       1.00
      C726          C  0.6248300  0.5359400  0.2255900    0.00000       Uiso       1.00
      H727          H  0.6093500  0.5579000  0.2294600    0.00000       Uiso       1.00
      H728          H  0.6399500  0.5406100  0.2035600    0.00000       Uiso       1.00
      H729          H  0.3152300  0.0036500  0.2715300    0.00000       Uiso       1.00
      C730          C  0.9987800  0.1495000  0.4577700    0.00000       Uiso       1.00
      C731          C  0.9825299  0.0940500  0.4949900    0.00000       Uiso       1.00
      C732          C  0.0191400  0.1391600  0.4832400    0.00000       Uiso       1.00
      C733          C  0.0110400  0.1117300  0.5017900    0.00000       Uiso       1.00
      C734          C  0.9702200  0.1317800  0.4509700    0.00000       Uiso       1.00
      C735          C  0.9622300  0.1042300  0.4693700    0.00000       Uiso       1.00
      H736          H  0.0309700  0.8096700  0.0566800    0.00000       Uiso       1.00
      H737          H  0.0412600  0.1524300  0.4889000    0.00000       Uiso       1.00
      H738          H  0.0271700  0.1044100  0.5213900    0.00000       Uiso       1.00
      H739          H  0.9540900  0.1391400  0.4314100    0.00000       Uiso       1.00
      H740          H  0.9400800  0.0910500  0.4635900    0.00000       Uiso       1.00
      N741          N  0.4878900  0.3093700  0.5829500    0.00000       Uiso       1.00
      C742          C  0.5077000  0.3213000  0.5612800    0.00000       Uiso       1.00
      C743          C  0.4942800  0.2804400  0.6030100    0.00000       Uiso       1.00
      B744          B  0.4733700  0.4366600  0.4841400    0.00000       Uiso       1.00
      O745          O  0.4558700  0.5064400  0.0552000    0.00000       Uiso       1.00
      C746          C  0.1248300  0.0359400  0.7255900    0.00000       Uiso       1.00
      H747          H  0.1093500  0.0579000  0.7294600    0.00000       Uiso       1.00
      H748          H  0.1399500  0.0406100  0.7035600    0.00000       Uiso       1.00
      H749          H  0.8152300  0.5036500  0.7715300    0.00000       Uiso       1.00
      C750          C  0.4987800  0.6495000  0.9577700    0.00000       Uiso       1.00
      C751          C  0.4825300  0.5940500  0.9949900    0.00000       Uiso       1.00
      C752          C  0.5191400  0.6391600  0.9832400    0.00000       Uiso       1.00
      C753          C  0.5110400  0.6117300  0.0017900    0.00000       Uiso       1.00
      C754          C  0.4702200  0.6317800  0.9509699    0.00000       Uiso       1.00
      C755          C  0.4622300  0.6042300  0.9693699    0.00000       Uiso       1.00
      H756          H  0.5309700  0.3096700  0.5566800    0.00000       Uiso       1.00
      H757          H  0.5412600  0.6524300  0.9889000    0.00000       Uiso       1.00
      H758          H  0.5271700  0.6044100  0.0213900    0.00000       Uiso       1.00
      H759          H  0.4540900  0.6391400  0.9314101    0.00000       Uiso       1.00
      H760          H  0.4400800  0.5910500  0.9635900    0.00000       Uiso       1.00
      N761          N  0.0121100  0.3093700  0.4170500    0.00000       Uiso       1.00
      C762          C  0.9923000  0.3213000  0.4387200    0.00000       Uiso       1.00
      C763          C  0.0057200  0.2804400  0.3969900    0.00000       Uiso       1.00
      B764          B  0.0266300  0.4366600  0.5158600    0.00000       Uiso       1.00
      O765          O  0.0441300  0.5064400  0.9448000    0.00000       Uiso       1.00
      C766          C  0.3751700  0.0359400  0.2744100    0.00000       Uiso       1.00
      H767          H  0.3906500  0.0579000  0.2705400    0.00000       Uiso       1.00
      H768          H  0.3600500  0.0406100  0.2964400    0.00000       Uiso       1.00
      H769          H  0.6847700  0.5036500  0.2284700    0.00000       Uiso       1.00
      C770          C  0.0012200  0.6495000  0.0422300    0.00000       Uiso       1.00
      C771          C  0.0174700  0.5940500  0.0050100    0.00000       Uiso       1.00
      C772          C  0.9808599  0.6391600  0.0167600    0.00000       Uiso       1.00
      C773          C  0.9889600  0.6117300  0.9982100    0.00000       Uiso       1.00
      C774          C  0.0297800  0.6317800  0.0490300    0.00000       Uiso       1.00
      C775          C  0.0377700  0.6042300  0.0306300    0.00000       Uiso       1.00
      H776          H  0.9690300  0.3096700  0.4433200    0.00000       Uiso       1.00
      H777          H  0.9587400  0.6524300  0.0111000    0.00000       Uiso       1.00
      H778          H  0.9728301  0.6044100  0.9786100    0.00000       Uiso       1.00
      H779          H  0.0459100  0.6391400  0.0685900    0.00000       Uiso       1.00
      H780          H  0.0599200  0.5910500  0.0364100    0.00000       Uiso       1.00
      N781          N  0.5121100  0.8093700  0.9170500    0.00000       Uiso       1.00
      C782          C  0.4923000  0.8213000  0.9387200    0.00000       Uiso       1.00
      C783          C  0.5057200  0.7804400  0.8969900    0.00000       Uiso       1.00
      B784          B  0.5266300  0.9366600  0.0158600    0.00000       Uiso       1.00
      O785          O  0.5441300  0.0064400  0.4448000    0.00000       Uiso       1.00
      C786          C  0.8751700  0.5359400  0.7744100    0.00000       Uiso       1.00
      H787          H  0.8906500  0.5579000  0.7705400    0.00000       Uiso       1.00
      H788          H  0.8600500  0.5406100  0.7964400    0.00000       Uiso       1.00
      H789          H  0.1847700  0.0036500  0.7284700    0.00000       Uiso       1.00
      C790          C  0.5012200  0.1495000  0.5422300    0.00000       Uiso       1.00
      C791          C  0.5174700  0.0940500  0.5050100    0.00000       Uiso       1.00
      C792          C  0.4808600  0.1391600  0.5167600    0.00000       Uiso       1.00
      C793          C  0.4889600  0.1117300  0.4982100    0.00000       Uiso       1.00
      C794          C  0.5297800  0.1317800  0.5490300    0.00000       Uiso       1.00
      C795          C  0.5377700  0.1042300  0.5306300    0.00000       Uiso       1.00
      H796          H  0.4690300  0.8096700  0.9433200    0.00000       Uiso       1.00
      H797          H  0.4587400  0.1524300  0.5111000    0.00000       Uiso       1.00
      H798          H  0.4728300  0.1044100  0.4786100    0.00000       Uiso       1.00
      H799          H  0.5459100  0.1391400  0.5685900    0.00000       Uiso       1.00
      H800          H  0.5599200  0.0910500  0.5364100    0.00000       Uiso       1.00
      N801          N  0.1906300  0.5829500  0.5121100    0.00000       Uiso       1.00
      C802          C  0.1787000  0.5612800  0.4923000    0.00000       Uiso       1.00
      C803          C  0.2195600  0.6030100  0.5057200    0.00000       Uiso       1.00
      B804          B  0.0633400  0.4841400  0.5266300    0.00000       Uiso       1.00
      O805          O  0.9935600  0.0552000  0.5441300    0.00000       Uiso       1.00
      C806          C  0.4640600  0.7255900  0.8751700    0.00000       Uiso       1.00
      H807          H  0.4421000  0.7294600  0.8906500    0.00000       Uiso       1.00
      H808          H  0.4593900  0.7035600  0.8600500    0.00000       Uiso       1.00
      H809          H  0.9963500  0.7715300  0.1847700    0.00000       Uiso       1.00
      C810          C  0.8504999  0.9577700  0.5012200    0.00000       Uiso       1.00
      C811          C  0.9059500  0.9949900  0.5174700    0.00000       Uiso       1.00
      C812          C  0.8608400  0.9832400  0.4808600    0.00000       Uiso       1.00
      C813          C  0.8882700  0.0017900  0.4889600    0.00000       Uiso       1.00
      C814          C  0.8682200  0.9509699  0.5297800    0.00000       Uiso       1.00
      C815          C  0.8957700  0.9693699  0.5377700    0.00000       Uiso       1.00
      H816          H  0.1903300  0.5566800  0.4690300    0.00000       Uiso       1.00
      H817          H  0.8475699  0.9889000  0.4587400    0.00000       Uiso       1.00
      H818          H  0.8955901  0.0213900  0.4728300    0.00000       Uiso       1.00
      H819          H  0.8608600  0.9314101  0.5459100    0.00000       Uiso       1.00
      H820          H  0.9089500  0.9635900  0.5599200    0.00000       Uiso       1.00
      N821          N  0.6906300  0.0829500  0.0121100    0.00000       Uiso       1.00
      C822          C  0.6787000  0.0612800  0.9923000    0.00000       Uiso       1.00
      C823          C  0.7195600  0.1030100  0.0057200    0.00000       Uiso       1.00
      B824          B  0.5633400  0.9841400  0.0266300    0.00000       Uiso       1.00
      O825          O  0.4935600  0.5552000  0.0441300    0.00000       Uiso       1.00
      C826          C  0.9640600  0.2255900  0.3751700    0.00000       Uiso       1.00
      H827          H  0.9421000  0.2294600  0.3906500    0.00000       Uiso       1.00
      H828          H  0.9593900  0.2035600  0.3600500    0.00000       Uiso       1.00
      H829          H  0.4963500  0.2715300  0.6847700    0.00000       Uiso       1.00
      C830          C  0.3505000  0.4577700  0.0012200    0.00000       Uiso       1.00
      C831          C  0.4059500  0.4949900  0.0174700    0.00000       Uiso       1.00
      C832          C  0.3608400  0.4832400  0.9808599    0.00000       Uiso       1.00
      C833          C  0.3882700  0.5017900  0.9889600    0.00000       Uiso       1.00
      C834          C  0.3682200  0.4509700  0.0297800    0.00000       Uiso       1.00
      C835          C  0.3957700  0.4693700  0.0377700    0.00000       Uiso       1.00
      H836          H  0.6903300  0.0566800  0.9690300    0.00000       Uiso       1.00
      H837          H  0.3475700  0.4889000  0.9587400    0.00000       Uiso       1.00
      H838          H  0.3955900  0.5213900  0.9728301    0.00000       Uiso       1.00
      H839          H  0.3608600  0.4314100  0.0459100    0.00000       Uiso       1.00
      H840          H  0.4089500  0.4635900  0.0599200    0.00000       Uiso       1.00
      N841          N  0.6906300  0.9170500  0.4878900    0.00000       Uiso       1.00
      C842          C  0.6787000  0.9387200  0.5077000    0.00000       Uiso       1.00
      C843          C  0.7195600  0.8969900  0.4942800    0.00000       Uiso       1.00
      B844          B  0.5633400  0.0158600  0.4733700    0.00000       Uiso       1.00
      O845          O  0.4935600  0.4448000  0.4558700    0.00000       Uiso       1.00
      C846          C  0.9640600  0.7744100  0.1248300    0.00000       Uiso       1.00
      H847          H  0.9421000  0.7705400  0.1093500    0.00000       Uiso       1.00
      H848          H  0.9593900  0.7964400  0.1399500    0.00000       Uiso       1.00
      H849          H  0.4963500  0.7284700  0.8152300    0.00000       Uiso       1.00
      C850          C  0.3505000  0.5422300  0.4987800    0.00000       Uiso       1.00
      C851          C  0.4059500  0.5050100  0.4825300    0.00000       Uiso       1.00
      C852          C  0.3608400  0.5167600  0.5191400    0.00000       Uiso       1.00
      C853          C  0.3882700  0.4982100  0.5110400    0.00000       Uiso       1.00
      C854          C  0.3682200  0.5490300  0.4702200    0.00000       Uiso       1.00
      C855          C  0.3957700  0.5306300  0.4622300    0.00000       Uiso       1.00
      H856          H  0.6903300  0.9433200  0.5309700    0.00000       Uiso       1.00
      H857          H  0.3475700  0.5111000  0.5412600    0.00000       Uiso       1.00
      H858          H  0.3955900  0.4786100  0.5271700    0.00000       Uiso       1.00
      H859          H  0.3608600  0.5685900  0.4540900    0.00000       Uiso       1.00
      H860          H  0.4089500  0.5364100  0.4400800    0.00000       Uiso       1.00
      N861          N  0.1906300  0.4170500  0.9878899    0.00000       Uiso       1.00
      C862          C  0.1787000  0.4387200  0.0077000    0.00000       Uiso       1.00
      C863          C  0.2195600  0.3969900  0.9942800    0.00000       Uiso       1.00
      B864          B  0.0633400  0.5158600  0.9733700    0.00000       Uiso       1.00
      O865          O  0.9935600  0.9448000  0.9558700    0.00000       Uiso       1.00
      C866          C  0.4640600  0.2744100  0.6248300    0.00000       Uiso       1.00
      H867          H  0.4421000  0.2705400  0.6093500    0.00000       Uiso       1.00
      H868          H  0.4593900  0.2964400  0.6399500    0.00000       Uiso       1.00
      H869          H  0.9963500  0.2284700  0.3152300    0.00000       Uiso       1.00
      C870          C  0.8504999  0.0422300  0.9987800    0.00000       Uiso       1.00
      C871          C  0.9059500  0.0050100  0.9825299    0.00000       Uiso       1.00
      C872          C  0.8608400  0.0167600  0.0191400    0.00000       Uiso       1.00
      C873          C  0.8882700  0.9982100  0.0110400    0.00000       Uiso       1.00
      C874          C  0.8682200  0.0490300  0.9702200    0.00000       Uiso       1.00
      C875          C  0.8957700  0.0306300  0.9622300    0.00000       Uiso       1.00
      H876          H  0.1903300  0.4433200  0.0309700    0.00000       Uiso       1.00
      H877          H  0.8475699  0.0111000  0.0412600    0.00000       Uiso       1.00
      H878          H  0.8955901  0.9786100  0.0271700    0.00000       Uiso       1.00
      H879          H  0.8608600  0.0685900  0.9540900    0.00000       Uiso       1.00
      H880          H  0.9089500  0.0364100  0.9400800    0.00000       Uiso       1.00
      N881          N  0.8093700  0.0829500  0.9878899    0.00000       Uiso       1.00
      C882          C  0.8213000  0.0612800  0.0077000    0.00000       Uiso       1.00
      C883          C  0.7804400  0.1030100  0.9942800    0.00000       Uiso       1.00
      B884          B  0.9366600  0.9841400  0.9733700    0.00000       Uiso       1.00
      O885          O  0.0064400  0.5552000  0.9558700    0.00000       Uiso       1.00
      C886          C  0.5359400  0.2255900  0.6248300    0.00000       Uiso       1.00
      H887          H  0.5579000  0.2294600  0.6093500    0.00000       Uiso       1.00
      H888          H  0.5406100  0.2035600  0.6399500    0.00000       Uiso       1.00
      H889          H  0.0036500  0.2715300  0.3152300    0.00000       Uiso       1.00
      C890          C  0.1495000  0.4577700  0.9987800    0.00000       Uiso       1.00
      C891          C  0.0940500  0.4949900  0.9825299    0.00000       Uiso       1.00
      C892          C  0.1391600  0.4832400  0.0191400    0.00000       Uiso       1.00
      C893          C  0.1117300  0.5017900  0.0110400    0.00000       Uiso       1.00
      C894          C  0.1317800  0.4509700  0.9702200    0.00000       Uiso       1.00
      C895          C  0.1042300  0.4693700  0.9622300    0.00000       Uiso       1.00
      H896          H  0.8096700  0.0566800  0.0309700    0.00000       Uiso       1.00
      H897          H  0.1524300  0.4889000  0.0412600    0.00000       Uiso       1.00
      H898          H  0.1044100  0.5213900  0.0271700    0.00000       Uiso       1.00
      H899          H  0.1391400  0.4314100  0.9540900    0.00000       Uiso       1.00
      H900          H  0.0910500  0.4635900  0.9400800    0.00000       Uiso       1.00
      N901          N  0.3093700  0.5829500  0.4878900    0.00000       Uiso       1.00
      C902          C  0.3213000  0.5612800  0.5077000    0.00000       Uiso       1.00
      C903          C  0.2804400  0.6030100  0.4942800    0.00000       Uiso       1.00
      B904          B  0.4366600  0.4841400  0.4733700    0.00000       Uiso       1.00
      O905          O  0.5064400  0.0552000  0.4558700    0.00000       Uiso       1.00
      C906          C  0.0359400  0.7255900  0.1248300    0.00000       Uiso       1.00
      H907          H  0.0579000  0.7294600  0.1093500    0.00000       Uiso       1.00
      H908          H  0.0406100  0.7035600  0.1399500    0.00000       Uiso       1.00
      H909          H  0.5036500  0.7715300  0.8152300    0.00000       Uiso       1.00
      C910          C  0.6495000  0.9577700  0.4987800    0.00000       Uiso       1.00
      C911          C  0.5940500  0.9949900  0.4825300    0.00000       Uiso       1.00
      C912          C  0.6391600  0.9832400  0.5191400    0.00000       Uiso       1.00
      C913          C  0.6117300  0.0017900  0.5110400    0.00000       Uiso       1.00
      C914          C  0.6317800  0.9509699  0.4702200    0.00000       Uiso       1.00
      C915          C  0.6042300  0.9693699  0.4622300    0.00000       Uiso       1.00
      H916          H  0.3096700  0.5566800  0.5309700    0.00000       Uiso       1.00
      H917          H  0.6524300  0.9889000  0.5412600    0.00000       Uiso       1.00
      H918          H  0.6044100  0.0213900  0.5271700    0.00000       Uiso       1.00
      H919          H  0.6391400  0.9314101  0.4540900    0.00000       Uiso       1.00
      H920          H  0.5910500  0.9635900  0.4400800    0.00000       Uiso       1.00
      N921          N  0.3093700  0.4170500  0.0121100    0.00000       Uiso       1.00
      C922          C  0.3213000  0.4387200  0.9923000    0.00000       Uiso       1.00
      C923          C  0.2804400  0.3969900  0.0057200    0.00000       Uiso       1.00
      B924          B  0.4366600  0.5158600  0.0266300    0.00000       Uiso       1.00
      O925          O  0.5064400  0.9448000  0.0441300    0.00000       Uiso       1.00
      C926          C  0.0359400  0.2744100  0.3751700    0.00000       Uiso       1.00
      H927          H  0.0579000  0.2705400  0.3906500    0.00000       Uiso       1.00
      H928          H  0.0406100  0.2964400  0.3600500    0.00000       Uiso       1.00
      H929          H  0.5036500  0.2284700  0.6847700    0.00000       Uiso       1.00
      C930          C  0.6495000  0.0422300  0.0012200    0.00000       Uiso       1.00
      C931          C  0.5940500  0.0050100  0.0174700    0.00000       Uiso       1.00
      C932          C  0.6391600  0.0167600  0.9808599    0.00000       Uiso       1.00
      C933          C  0.6117300  0.9982100  0.9889600    0.00000       Uiso       1.00
      C934          C  0.6317800  0.0490300  0.0297800    0.00000       Uiso       1.00
      C935          C  0.6042300  0.0306300  0.0377700    0.00000       Uiso       1.00
      H936          H  0.3096700  0.4433200  0.9690300    0.00000       Uiso       1.00
      H937          H  0.6524300  0.0111000  0.9587400    0.00000       Uiso       1.00
      H938          H  0.6044100  0.9786100  0.9728301    0.00000       Uiso       1.00
      H939          H  0.6391400  0.0685900  0.0459100    0.00000       Uiso       1.00
      H940          H  0.5910500  0.0364100  0.0599200    0.00000       Uiso       1.00
      N941          N  0.8093700  0.9170500  0.5121100    0.00000       Uiso       1.00
      C942          C  0.8213000  0.9387200  0.4923000    0.00000       Uiso       1.00
      C943          C  0.7804400  0.8969900  0.5057200    0.00000       Uiso       1.00
      B944          B  0.9366600  0.0158600  0.5266300    0.00000       Uiso       1.00
      O945          O  0.0064400  0.4448000  0.5441300    0.00000       Uiso       1.00
      C946          C  0.5359400  0.7744100  0.8751700    0.00000       Uiso       1.00
      H947          H  0.5579000  0.7705400  0.8906500    0.00000       Uiso       1.00
      H948          H  0.5406100  0.7964400  0.8600500    0.00000       Uiso       1.00
      H949          H  0.0036500  0.7284700  0.1847700    0.00000       Uiso       1.00
      C950          C  0.1495000  0.5422300  0.5012200    0.00000       Uiso       1.00
      C951          C  0.0940500  0.5050100  0.5174700    0.00000       Uiso       1.00
      C952          C  0.1391600  0.5167600  0.4808600    0.00000       Uiso       1.00
      C953          C  0.1117300  0.4982100  0.4889600    0.00000       Uiso       1.00
      C954          C  0.1317800  0.5490300  0.5297800    0.00000       Uiso       1.00
      C955          C  0.1042300  0.5306300  0.5377700    0.00000       Uiso       1.00
      H956          H  0.8096700  0.9433200  0.4690300    0.00000       Uiso       1.00
      H957          H  0.1524300  0.5111000  0.4587400    0.00000       Uiso       1.00
      H958          H  0.1044100  0.4786100  0.4728300    0.00000       Uiso       1.00
      H959          H  0.1391400  0.5685900  0.5459100    0.00000       Uiso       1.00
      H960          H  0.0910500  0.5364100  0.5599200    0.00000       Uiso       1.00
      C961          C  0.2500000  0.6687000  0.5000000    0.00000       Uiso       1.00
      C962          C  0.2500000  0.3313000  0.0000000    0.00000       Uiso       1.00
      C963          C  0.7500000  0.1687000  0.0000000    0.00000       Uiso       1.00
      C964          C  0.7500000  0.8313000  0.5000000    0.00000       Uiso       1.00
      C965          C  0.5000000  0.2500000  0.6687000    0.00000       Uiso       1.00
      C966          C  0.0000000  0.2500000  0.3313000    0.00000       Uiso       1.00
      C967          C  0.0000000  0.7500000  0.1687000    0.00000       Uiso       1.00
      C968          C  0.5000000  0.7500000  0.8313000    0.00000       Uiso       1.00
      C969          C  0.6687000  0.5000000  0.2500000    0.00000       Uiso       1.00
      C970          C  0.3313000  0.0000000  0.2500000    0.00000       Uiso       1.00
      C971          C  0.1687000  0.0000000  0.7500000    0.00000       Uiso       1.00
      C972          C  0.8313000  0.5000000  0.7500000    0.00000       Uiso       1.00
      C973          C  0.9187000  0.5000000  0.7500000    0.00000       Uiso       1.00
      C974          C  0.5813000  0.5000000  0.2500000    0.00000       Uiso       1.00
      C975          C  0.4187000  0.0000000  0.2500000    0.00000       Uiso       1.00
      C976          C  0.0813000  0.0000000  0.7500000    0.00000       Uiso       1.00
      C977          C  0.5000000  0.7500000  0.9187000    0.00000       Uiso       1.00
      C978          C  0.5000000  0.2500000  0.5813000    0.00000       Uiso       1.00
      C979          C  0.0000000  0.2500000  0.4187000    0.00000       Uiso       1.00
      C980          C  0.0000000  0.7500000  0.0813000    0.00000       Uiso       1.00
      C981          C  0.7500000  0.9187000  0.5000000    0.00000       Uiso       1.00
      C982          C  0.2500000  0.5813000  0.5000000    0.00000       Uiso       1.00
      C983          C  0.2500000  0.4187000  0.0000000    0.00000       Uiso       1.00
      C984          C  0.7500000  0.0813000  0.0000000    0.00000       Uiso       1.00
