data_DL-COF-2-ctn
_audit_creation_date              0000-00-00
_audit_creation_method            'LanYouShi'
_symmetry_space_group_name_H-M    'P1'
_cell_length_a                    41.0141983
_cell_length_b                    41.0141983
_cell_length_c                    41.0141983
_cell_angle_alpha                 90.0000000
_cell_angle_beta                  90.0000000
_cell_angle_gamma                 90.0000000
loop_
_atom_site_label
_atom_site_type_symbol
_atom_site_fract_x
_atom_site_fract_y
_atom_site_fract_z
_atom_site_U_iso_or_equiv
_atom_site_adp_type
_atom_site_occupancy
        N1          N  0.2616400  0.3329400  0.9405500    0.00000       Uiso       1.00
        C2          C  0.2416900  0.3113300  0.9287400    0.00000       Uiso       1.00
        C3          C  0.2554800  0.3530100  0.9695200    0.00000       Uiso       1.00
        B4          B  0.2756800  0.2342600  0.8130000    0.00000       Uiso       1.00
        O5          O  0.2941600  0.8043600  0.7440800    0.00000       Uiso       1.00
        C6          C  0.6251800  0.4753100  0.2142500    0.00000       Uiso       1.00
        H7          H  0.6406600  0.4790100  0.1922700    0.00000       Uiso       1.00
        H8          H  0.6100600  0.4532500  0.2097600    0.00000       Uiso       1.00
        H9          H  0.9347700  0.5215500  0.7465200    0.00000       Uiso       1.00
       C10          C  0.2503700  0.7077700  0.6005000    0.00000       Uiso       1.00
       C11          C  0.2661800  0.7451100  0.6560900    0.00000       Uiso       1.00
       C12          C  0.2296700  0.7328900  0.6109300    0.00000       Uiso       1.00
       C13          C  0.2374400  0.7515500  0.6384100    0.00000       Uiso       1.00
       C14          C  0.2790100  0.7013400  0.6181600    0.00000       Uiso       1.00
       C15          C  0.2867700  0.7197800  0.6457300    0.00000       Uiso       1.00
       H16          H  0.2184700  0.3068300  0.9405000    0.00000       Uiso       1.00
       H17          H  0.2074500  0.7382000  0.5976700    0.00000       Uiso       1.00
       F18          F  0.2167000  0.7756600  0.6475700    0.00000       Uiso       1.00
       H19          H  0.2954200  0.6820400  0.6107300    0.00000       Uiso       1.00
       H20          H  0.3090500  0.7142100  0.6587900    0.00000       Uiso       1.00
       N21          N  0.7616400  0.8329400  0.4405500    0.00000       Uiso       1.00
       C22          C  0.7416900  0.8113300  0.4287400    0.00000       Uiso       1.00
       C23          C  0.7554800  0.8530099  0.4695200    0.00000       Uiso       1.00
       B24          B  0.7756800  0.7342600  0.3130000    0.00000       Uiso       1.00
       O25          O  0.7941599  0.3043600  0.2440800    0.00000       Uiso       1.00
       C26          C  0.1251800  0.9753101  0.7142500    0.00000       Uiso       1.00
       H27          H  0.1406600  0.9790100  0.6922700    0.00000       Uiso       1.00
       H28          H  0.1100600  0.9532499  0.7097600    0.00000       Uiso       1.00
       H29          H  0.4347700  0.0215500  0.2465200    0.00000       Uiso       1.00
       C30          C  0.7503700  0.2077700  0.1005000    0.00000       Uiso       1.00
       C31          C  0.7661800  0.2451100  0.1560900    0.00000       Uiso       1.00
       C32          C  0.7296700  0.2328900  0.1109300    0.00000       Uiso       1.00
       C33          C  0.7374400  0.2515500  0.1384100    0.00000       Uiso       1.00
       C34          C  0.7790100  0.2013400  0.1181600    0.00000       Uiso       1.00
       C35          C  0.7867700  0.2197800  0.1457300    0.00000       Uiso       1.00
       H36          H  0.7184700  0.8068300  0.4405000    0.00000       Uiso       1.00
       H37          H  0.7074500  0.2382000  0.0976700    0.00000       Uiso       1.00
       F38          F  0.7167000  0.2756600  0.1475700    0.00000       Uiso       1.00
       H39          H  0.7954200  0.1820400  0.1107300    0.00000       Uiso       1.00
       H40          H  0.8090500  0.2142100  0.1587900    0.00000       Uiso       1.00
       N41          N  0.2383600  0.6670600  0.4405500    0.00000       Uiso       1.00
       C42          C  0.2583100  0.6886700  0.4287400    0.00000       Uiso       1.00
       C43          C  0.2445200  0.6469900  0.4695200    0.00000       Uiso       1.00
       B44          B  0.2243200  0.7657400  0.3130000    0.00000       Uiso       1.00
       O45          O  0.2058400  0.1956400  0.2440800    0.00000       Uiso       1.00
       C46          C  0.8748199  0.5246900  0.7142500    0.00000       Uiso       1.00
       H47          H  0.8593400  0.5209900  0.6922700    0.00000       Uiso       1.00
       H48          H  0.8899400  0.5467500  0.7097600    0.00000       Uiso       1.00
       H49          H  0.5652300  0.4784500  0.2465200    0.00000       Uiso       1.00
       C50          C  0.2496300  0.2922300  0.1005000    0.00000       Uiso       1.00
       C51          C  0.2338200  0.2548900  0.1560900    0.00000       Uiso       1.00
       C52          C  0.2703300  0.2671100  0.1109300    0.00000       Uiso       1.00
       C53          C  0.2625600  0.2484500  0.1384100    0.00000       Uiso       1.00
       C54          C  0.2209900  0.2986600  0.1181600    0.00000       Uiso       1.00
       C55          C  0.2132300  0.2802200  0.1457300    0.00000       Uiso       1.00
       H56          H  0.2815300  0.6931700  0.4405000    0.00000       Uiso       1.00
       H57          H  0.2925500  0.2618000  0.0976700    0.00000       Uiso       1.00
       F58          F  0.2833000  0.2243400  0.1475700    0.00000       Uiso       1.00
       H59          H  0.2045800  0.3179600  0.1107300    0.00000       Uiso       1.00
       H60          H  0.1909500  0.2857900  0.1587900    0.00000       Uiso       1.00
       N61          N  0.7383600  0.1670600  0.9405500    0.00000       Uiso       1.00
       C62          C  0.7583100  0.1886700  0.9287400    0.00000       Uiso       1.00
       C63          C  0.7445200  0.1469900  0.9695200    0.00000       Uiso       1.00
       B64          B  0.7243200  0.2657400  0.8130000    0.00000       Uiso       1.00
       O65          O  0.7058400  0.6956400  0.7440800    0.00000       Uiso       1.00
       C66          C  0.3748200  0.0246900  0.2142500    0.00000       Uiso       1.00
       H67          H  0.3593400  0.0209900  0.1922700    0.00000       Uiso       1.00
       H68          H  0.3899400  0.0467500  0.2097600    0.00000       Uiso       1.00
       H69          H  0.0652300  0.9784499  0.7465200    0.00000       Uiso       1.00
       C70          C  0.7496300  0.7922300  0.6005000    0.00000       Uiso       1.00
       C71          C  0.7338200  0.7548900  0.6560900    0.00000       Uiso       1.00
       C72          C  0.7703300  0.7671100  0.6109300    0.00000       Uiso       1.00
       C73          C  0.7625600  0.7484500  0.6384100    0.00000       Uiso       1.00
       C74          C  0.7209900  0.7986599  0.6181600    0.00000       Uiso       1.00
       C75          C  0.7132300  0.7802199  0.6457300    0.00000       Uiso       1.00
       H76          H  0.7815301  0.1931700  0.9405000    0.00000       Uiso       1.00
       H77          H  0.7925500  0.7618000  0.5976700    0.00000       Uiso       1.00
       F78          F  0.7832999  0.7243400  0.6475700    0.00000       Uiso       1.00
       H79          H  0.7045800  0.8179600  0.6107300    0.00000       Uiso       1.00
       H80          H  0.6909500  0.7857900  0.6587900    0.00000       Uiso       1.00
       N81          N  0.7383600  0.8329400  0.5594500    0.00000       Uiso       1.00
       C82          C  0.7583100  0.8113300  0.5712600    0.00000       Uiso       1.00
       C83          C  0.7445200  0.8530099  0.5304800    0.00000       Uiso       1.00
       B84          B  0.7243200  0.7342600  0.6870000    0.00000       Uiso       1.00
       O85          O  0.7058400  0.3043600  0.7559200    0.00000       Uiso       1.00
       C86          C  0.3748200  0.9753101  0.2857500    0.00000       Uiso       1.00
       H87          H  0.3593400  0.9790100  0.3077300    0.00000       Uiso       1.00
       H88          H  0.3899400  0.9532499  0.2902400    0.00000       Uiso       1.00
       H89          H  0.0652300  0.0215500  0.7534800    0.00000       Uiso       1.00
       C90          C  0.7496300  0.2077700  0.8995000    0.00000       Uiso       1.00
       C91          C  0.7338200  0.2451100  0.8439099    0.00000       Uiso       1.00
       C92          C  0.7703300  0.2328900  0.8890700    0.00000       Uiso       1.00
       C93          C  0.7625600  0.2515500  0.8615900    0.00000       Uiso       1.00
       C94          C  0.7209900  0.2013400  0.8818400    0.00000       Uiso       1.00
       C95          C  0.7132300  0.2197800  0.8542699    0.00000       Uiso       1.00
       H96          H  0.7815301  0.8068300  0.5595000    0.00000       Uiso       1.00
       H97          H  0.7925500  0.2382000  0.9023299    0.00000       Uiso       1.00
       F98          F  0.7832999  0.2756600  0.8524299    0.00000       Uiso       1.00
       H99          H  0.7045800  0.1820400  0.8892701    0.00000       Uiso       1.00
      H100          H  0.6909500  0.2142100  0.8412099    0.00000       Uiso       1.00
      N101          N  0.2383600  0.3329400  0.0594500    0.00000       Uiso       1.00
      C102          C  0.2583100  0.3113300  0.0712600    0.00000       Uiso       1.00
      C103          C  0.2445200  0.3530100  0.0304800    0.00000       Uiso       1.00
      B104          B  0.2243200  0.2342600  0.1870000    0.00000       Uiso       1.00
      O105          O  0.2058400  0.8043600  0.2559200    0.00000       Uiso       1.00
      C106          C  0.8748199  0.4753100  0.7857500    0.00000       Uiso       1.00
      H107          H  0.8593400  0.4790100  0.8077300    0.00000       Uiso       1.00
      H108          H  0.8899400  0.4532500  0.7902400    0.00000       Uiso       1.00
      H109          H  0.5652300  0.5215500  0.2534800    0.00000       Uiso       1.00
      C110          C  0.2496300  0.7077700  0.3995000    0.00000       Uiso       1.00
      C111          C  0.2338200  0.7451100  0.3439100    0.00000       Uiso       1.00
      C112          C  0.2703300  0.7328900  0.3890700    0.00000       Uiso       1.00
      C113          C  0.2625600  0.7515500  0.3615900    0.00000       Uiso       1.00
      C114          C  0.2209900  0.7013400  0.3818400    0.00000       Uiso       1.00
      C115          C  0.2132300  0.7197800  0.3542700    0.00000       Uiso       1.00
      H116          H  0.2815300  0.3068300  0.0595000    0.00000       Uiso       1.00
      H117          H  0.2925500  0.7382000  0.4023300    0.00000       Uiso       1.00
      F118          F  0.2833000  0.7756600  0.3524300    0.00000       Uiso       1.00
      H119          H  0.2045800  0.6820400  0.3892700    0.00000       Uiso       1.00
      H120          H  0.1909500  0.7142100  0.3412100    0.00000       Uiso       1.00
      N121          N  0.7616400  0.1670600  0.0594500    0.00000       Uiso       1.00
      C122          C  0.7416900  0.1886700  0.0712600    0.00000       Uiso       1.00
      C123          C  0.7554800  0.1469900  0.0304800    0.00000       Uiso       1.00
      B124          B  0.7756800  0.2657400  0.1870000    0.00000       Uiso       1.00
      O125          O  0.7941599  0.6956400  0.2559200    0.00000       Uiso       1.00
      C126          C  0.1251800  0.0246900  0.7857500    0.00000       Uiso       1.00
      H127          H  0.1406600  0.0209900  0.8077300    0.00000       Uiso       1.00
      H128          H  0.1100600  0.0467500  0.7902400    0.00000       Uiso       1.00
      H129          H  0.4347700  0.9784499  0.2534800    0.00000       Uiso       1.00
      C130          C  0.7503700  0.7922300  0.3995000    0.00000       Uiso       1.00
      C131          C  0.7661800  0.7548900  0.3439100    0.00000       Uiso       1.00
      C132          C  0.7296700  0.7671100  0.3890700    0.00000       Uiso       1.00
      C133          C  0.7374400  0.7484500  0.3615900    0.00000       Uiso       1.00
      C134          C  0.7790100  0.7986599  0.3818400    0.00000       Uiso       1.00
      C135          C  0.7867700  0.7802199  0.3542700    0.00000       Uiso       1.00
      H136          H  0.7184700  0.1931700  0.0595000    0.00000       Uiso       1.00
      H137          H  0.7074500  0.7618000  0.4023300    0.00000       Uiso       1.00
      F138          F  0.7167000  0.7243400  0.3524300    0.00000       Uiso       1.00
      H139          H  0.7954200  0.8179600  0.3892700    0.00000       Uiso       1.00
      H140          H  0.8090500  0.7857900  0.3412100    0.00000       Uiso       1.00
      N141          N  0.2616400  0.6670600  0.5594500    0.00000       Uiso       1.00
      C142          C  0.2416900  0.6886700  0.5712600    0.00000       Uiso       1.00
      C143          C  0.2554800  0.6469900  0.5304800    0.00000       Uiso       1.00
      B144          B  0.2756800  0.7657400  0.6870000    0.00000       Uiso       1.00
      O145          O  0.2941600  0.1956400  0.7559200    0.00000       Uiso       1.00
      C146          C  0.6251800  0.5246900  0.2857500    0.00000       Uiso       1.00
      H147          H  0.6406600  0.5209900  0.3077300    0.00000       Uiso       1.00
      H148          H  0.6100600  0.5467500  0.2902400    0.00000       Uiso       1.00
      H149          H  0.9347700  0.4784500  0.7534800    0.00000       Uiso       1.00
      C150          C  0.2503700  0.2922300  0.8995000    0.00000       Uiso       1.00
      C151          C  0.2661800  0.2548900  0.8439099    0.00000       Uiso       1.00
      C152          C  0.2296700  0.2671100  0.8890700    0.00000       Uiso       1.00
      C153          C  0.2374400  0.2484500  0.8615900    0.00000       Uiso       1.00
      C154          C  0.2790100  0.2986600  0.8818400    0.00000       Uiso       1.00
      C155          C  0.2867700  0.2802200  0.8542699    0.00000       Uiso       1.00
      H156          H  0.2184700  0.6931700  0.5595000    0.00000       Uiso       1.00
      H157          H  0.2074500  0.2618000  0.9023299    0.00000       Uiso       1.00
      F158          F  0.2167000  0.2243400  0.8524299    0.00000       Uiso       1.00
      H159          H  0.2954200  0.3179600  0.8892701    0.00000       Uiso       1.00
      H160          H  0.3090500  0.2857900  0.8412099    0.00000       Uiso       1.00
      N161          N  0.9405500  0.2616400  0.3329400    0.00000       Uiso       1.00
      C162          C  0.9287400  0.2416900  0.3113300    0.00000       Uiso       1.00
      C163          C  0.9695200  0.2554800  0.3530100    0.00000       Uiso       1.00
      B164          B  0.8130000  0.2756800  0.2342600    0.00000       Uiso       1.00
      O165          O  0.7440800  0.2941600  0.8043600    0.00000       Uiso       1.00
      C166          C  0.2142500  0.6251800  0.4753100    0.00000       Uiso       1.00
      H167          H  0.1922700  0.6406600  0.4790100    0.00000       Uiso       1.00
      H168          H  0.2097600  0.6100600  0.4532500    0.00000       Uiso       1.00
      H169          H  0.7465200  0.9347700  0.5215500    0.00000       Uiso       1.00
      C170          C  0.6005000  0.2503700  0.7077700    0.00000       Uiso       1.00
      C171          C  0.6560900  0.2661800  0.7451100    0.00000       Uiso       1.00
      C172          C  0.6109300  0.2296700  0.7328900    0.00000       Uiso       1.00
      C173          C  0.6384100  0.2374400  0.7515500    0.00000       Uiso       1.00
      C174          C  0.6181600  0.2790100  0.7013400    0.00000       Uiso       1.00
      C175          C  0.6457300  0.2867700  0.7197800    0.00000       Uiso       1.00
      H176          H  0.9405000  0.2184700  0.3068300    0.00000       Uiso       1.00
      H177          H  0.5976700  0.2074500  0.7382000    0.00000       Uiso       1.00
      F178          F  0.6475700  0.2167000  0.7756600    0.00000       Uiso       1.00
      H179          H  0.6107300  0.2954200  0.6820400    0.00000       Uiso       1.00
      H180          H  0.6587900  0.3090500  0.7142100    0.00000       Uiso       1.00
      N181          N  0.4405500  0.7616400  0.8329400    0.00000       Uiso       1.00
      C182          C  0.4287400  0.7416900  0.8113300    0.00000       Uiso       1.00
      C183          C  0.4695200  0.7554800  0.8530099    0.00000       Uiso       1.00
      B184          B  0.3130000  0.7756800  0.7342600    0.00000       Uiso       1.00
      O185          O  0.2440800  0.7941599  0.3043600    0.00000       Uiso       1.00
      C186          C  0.7142500  0.1251800  0.9753101    0.00000       Uiso       1.00
      H187          H  0.6922700  0.1406600  0.9790100    0.00000       Uiso       1.00
      H188          H  0.7097600  0.1100600  0.9532499    0.00000       Uiso       1.00
      H189          H  0.2465200  0.4347700  0.0215500    0.00000       Uiso       1.00
      C190          C  0.1005000  0.7503700  0.2077700    0.00000       Uiso       1.00
      C191          C  0.1560900  0.7661800  0.2451100    0.00000       Uiso       1.00
      C192          C  0.1109300  0.7296700  0.2328900    0.00000       Uiso       1.00
      C193          C  0.1384100  0.7374400  0.2515500    0.00000       Uiso       1.00
      C194          C  0.1181600  0.7790100  0.2013400    0.00000       Uiso       1.00
      C195          C  0.1457300  0.7867700  0.2197800    0.00000       Uiso       1.00
      H196          H  0.4405000  0.7184700  0.8068300    0.00000       Uiso       1.00
      H197          H  0.0976700  0.7074500  0.2382000    0.00000       Uiso       1.00
      F198          F  0.1475700  0.7167000  0.2756600    0.00000       Uiso       1.00
      H199          H  0.1107300  0.7954200  0.1820400    0.00000       Uiso       1.00
      H200          H  0.1587900  0.8090500  0.2142100    0.00000       Uiso       1.00
      N201          N  0.4405500  0.2383600  0.6670600    0.00000       Uiso       1.00
      C202          C  0.4287400  0.2583100  0.6886700    0.00000       Uiso       1.00
      C203          C  0.4695200  0.2445200  0.6469900    0.00000       Uiso       1.00
      B204          B  0.3130000  0.2243200  0.7657400    0.00000       Uiso       1.00
      O205          O  0.2440800  0.2058400  0.1956400    0.00000       Uiso       1.00
      C206          C  0.7142500  0.8748199  0.5246900    0.00000       Uiso       1.00
      H207          H  0.6922700  0.8593400  0.5209900    0.00000       Uiso       1.00
      H208          H  0.7097600  0.8899400  0.5467500    0.00000       Uiso       1.00
      H209          H  0.2465200  0.5652300  0.4784500    0.00000       Uiso       1.00
      C210          C  0.1005000  0.2496300  0.2922300    0.00000       Uiso       1.00
      C211          C  0.1560900  0.2338200  0.2548900    0.00000       Uiso       1.00
      C212          C  0.1109300  0.2703300  0.2671100    0.00000       Uiso       1.00
      C213          C  0.1384100  0.2625600  0.2484500    0.00000       Uiso       1.00
      C214          C  0.1181600  0.2209900  0.2986600    0.00000       Uiso       1.00
      C215          C  0.1457300  0.2132300  0.2802200    0.00000       Uiso       1.00
      H216          H  0.4405000  0.2815300  0.6931700    0.00000       Uiso       1.00
      H217          H  0.0976700  0.2925500  0.2618000    0.00000       Uiso       1.00
      F218          F  0.1475700  0.2833000  0.2243400    0.00000       Uiso       1.00
      H219          H  0.1107300  0.2045800  0.3179600    0.00000       Uiso       1.00
      H220          H  0.1587900  0.1909500  0.2857900    0.00000       Uiso       1.00
      N221          N  0.9405500  0.7383600  0.1670600    0.00000       Uiso       1.00
      C222          C  0.9287400  0.7583100  0.1886700    0.00000       Uiso       1.00
      C223          C  0.9695200  0.7445200  0.1469900    0.00000       Uiso       1.00
      B224          B  0.8130000  0.7243200  0.2657400    0.00000       Uiso       1.00
      O225          O  0.7440800  0.7058400  0.6956400    0.00000       Uiso       1.00
      C226          C  0.2142500  0.3748200  0.0246900    0.00000       Uiso       1.00
      H227          H  0.1922700  0.3593400  0.0209900    0.00000       Uiso       1.00
      H228          H  0.2097600  0.3899400  0.0467500    0.00000       Uiso       1.00
      H229          H  0.7465200  0.0652300  0.9784499    0.00000       Uiso       1.00
      C230          C  0.6005000  0.7496300  0.7922300    0.00000       Uiso       1.00
      C231          C  0.6560900  0.7338200  0.7548900    0.00000       Uiso       1.00
      C232          C  0.6109300  0.7703300  0.7671100    0.00000       Uiso       1.00
      C233          C  0.6384100  0.7625600  0.7484500    0.00000       Uiso       1.00
      C234          C  0.6181600  0.7209900  0.7986599    0.00000       Uiso       1.00
      C235          C  0.6457300  0.7132300  0.7802199    0.00000       Uiso       1.00
      H236          H  0.9405000  0.7815301  0.1931700    0.00000       Uiso       1.00
      H237          H  0.5976700  0.7925500  0.7618000    0.00000       Uiso       1.00
      F238          F  0.6475700  0.7832999  0.7243400    0.00000       Uiso       1.00
      H239          H  0.6107300  0.7045800  0.8179600    0.00000       Uiso       1.00
      H240          H  0.6587900  0.6909500  0.7857900    0.00000       Uiso       1.00
      N241          N  0.5594500  0.7383600  0.8329400    0.00000       Uiso       1.00
      C242          C  0.5712600  0.7583100  0.8113300    0.00000       Uiso       1.00
      C243          C  0.5304800  0.7445200  0.8530099    0.00000       Uiso       1.00
      B244          B  0.6870000  0.7243200  0.7342600    0.00000       Uiso       1.00
      O245          O  0.7559200  0.7058400  0.3043600    0.00000       Uiso       1.00
      C246          C  0.2857500  0.3748200  0.9753101    0.00000       Uiso       1.00
      H247          H  0.3077300  0.3593400  0.9790100    0.00000       Uiso       1.00
      H248          H  0.2902400  0.3899400  0.9532499    0.00000       Uiso       1.00
      H249          H  0.7534800  0.0652300  0.0215500    0.00000       Uiso       1.00
      C250          C  0.8995000  0.7496300  0.2077700    0.00000       Uiso       1.00
      C251          C  0.8439099  0.7338200  0.2451100    0.00000       Uiso       1.00
      C252          C  0.8890700  0.7703300  0.2328900    0.00000       Uiso       1.00
      C253          C  0.8615900  0.7625600  0.2515500    0.00000       Uiso       1.00
      C254          C  0.8818400  0.7209900  0.2013400    0.00000       Uiso       1.00
      C255          C  0.8542699  0.7132300  0.2197800    0.00000       Uiso       1.00
      H256          H  0.5595000  0.7815301  0.8068300    0.00000       Uiso       1.00
      H257          H  0.9023299  0.7925500  0.2382000    0.00000       Uiso       1.00
      F258          F  0.8524299  0.7832999  0.2756600    0.00000       Uiso       1.00
      H259          H  0.8892701  0.7045800  0.1820400    0.00000       Uiso       1.00
      H260          H  0.8412099  0.6909500  0.2142100    0.00000       Uiso       1.00
      N261          N  0.0594500  0.2383600  0.3329400    0.00000       Uiso       1.00
      C262          C  0.0712600  0.2583100  0.3113300    0.00000       Uiso       1.00
      C263          C  0.0304800  0.2445200  0.3530100    0.00000       Uiso       1.00
      B264          B  0.1870000  0.2243200  0.2342600    0.00000       Uiso       1.00
      O265          O  0.2559200  0.2058400  0.8043600    0.00000       Uiso       1.00
      C266          C  0.7857500  0.8748199  0.4753100    0.00000       Uiso       1.00
      H267          H  0.8077300  0.8593400  0.4790100    0.00000       Uiso       1.00
      H268          H  0.7902400  0.8899400  0.4532500    0.00000       Uiso       1.00
      H269          H  0.2534800  0.5652300  0.5215500    0.00000       Uiso       1.00
      C270          C  0.3995000  0.2496300  0.7077700    0.00000       Uiso       1.00
      C271          C  0.3439100  0.2338200  0.7451100    0.00000       Uiso       1.00
      C272          C  0.3890700  0.2703300  0.7328900    0.00000       Uiso       1.00
      C273          C  0.3615900  0.2625600  0.7515500    0.00000       Uiso       1.00
      C274          C  0.3818400  0.2209900  0.7013400    0.00000       Uiso       1.00
      C275          C  0.3542700  0.2132300  0.7197800    0.00000       Uiso       1.00
      H276          H  0.0595000  0.2815300  0.3068300    0.00000       Uiso       1.00
      H277          H  0.4023300  0.2925500  0.7382000    0.00000       Uiso       1.00
      F278          F  0.3524300  0.2833000  0.7756600    0.00000       Uiso       1.00
      H279          H  0.3892700  0.2045800  0.6820400    0.00000       Uiso       1.00
      H280          H  0.3412100  0.1909500  0.7142100    0.00000       Uiso       1.00
      N281          N  0.0594500  0.7616400  0.1670600    0.00000       Uiso       1.00
      C282          C  0.0712600  0.7416900  0.1886700    0.00000       Uiso       1.00
      C283          C  0.0304800  0.7554800  0.1469900    0.00000       Uiso       1.00
      B284          B  0.1870000  0.7756800  0.2657400    0.00000       Uiso       1.00
      O285          O  0.2559200  0.7941599  0.6956400    0.00000       Uiso       1.00
      C286          C  0.7857500  0.1251800  0.0246900    0.00000       Uiso       1.00
      H287          H  0.8077300  0.1406600  0.0209900    0.00000       Uiso       1.00
      H288          H  0.7902400  0.1100600  0.0467500    0.00000       Uiso       1.00
      H289          H  0.2534800  0.4347700  0.9784499    0.00000       Uiso       1.00
      C290          C  0.3995000  0.7503700  0.7922300    0.00000       Uiso       1.00
      C291          C  0.3439100  0.7661800  0.7548900    0.00000       Uiso       1.00
      C292          C  0.3890700  0.7296700  0.7671100    0.00000       Uiso       1.00
      C293          C  0.3615900  0.7374400  0.7484500    0.00000       Uiso       1.00
      C294          C  0.3818400  0.7790100  0.7986599    0.00000       Uiso       1.00
      C295          C  0.3542700  0.7867700  0.7802199    0.00000       Uiso       1.00
      H296          H  0.0595000  0.7184700  0.1931700    0.00000       Uiso       1.00
      H297          H  0.4023300  0.7074500  0.7618000    0.00000       Uiso       1.00
      F298          F  0.3524300  0.7167000  0.7243400    0.00000       Uiso       1.00
      H299          H  0.3892700  0.7954200  0.8179600    0.00000       Uiso       1.00
      H300          H  0.3412100  0.8090500  0.7857900    0.00000       Uiso       1.00
      N301          N  0.5594500  0.2616400  0.6670600    0.00000       Uiso       1.00
      C302          C  0.5712600  0.2416900  0.6886700    0.00000       Uiso       1.00
      C303          C  0.5304800  0.2554800  0.6469900    0.00000       Uiso       1.00
      B304          B  0.6870000  0.2756800  0.7657400    0.00000       Uiso       1.00
      O305          O  0.7559200  0.2941600  0.1956400    0.00000       Uiso       1.00
      C306          C  0.2857500  0.6251800  0.5246900    0.00000       Uiso       1.00
      H307          H  0.3077300  0.6406600  0.5209900    0.00000       Uiso       1.00
      H308          H  0.2902400  0.6100600  0.5467500    0.00000       Uiso       1.00
      H309          H  0.7534800  0.9347700  0.4784500    0.00000       Uiso       1.00
      C310          C  0.8995000  0.2503700  0.2922300    0.00000       Uiso       1.00
      C311          C  0.8439099  0.2661800  0.2548900    0.00000       Uiso       1.00
      C312          C  0.8890700  0.2296700  0.2671100    0.00000       Uiso       1.00
      C313          C  0.8615900  0.2374400  0.2484500    0.00000       Uiso       1.00
      C314          C  0.8818400  0.2790100  0.2986600    0.00000       Uiso       1.00
      C315          C  0.8542699  0.2867700  0.2802200    0.00000       Uiso       1.00
      H316          H  0.5595000  0.2184700  0.6931700    0.00000       Uiso       1.00
      H317          H  0.9023299  0.2074500  0.2618000    0.00000       Uiso       1.00
      F318          F  0.8524299  0.2167000  0.2243400    0.00000       Uiso       1.00
      H319          H  0.8892701  0.2954200  0.3179600    0.00000       Uiso       1.00
      H320          H  0.8412099  0.3090500  0.2857900    0.00000       Uiso       1.00
      N321          N  0.3329400  0.9405500  0.2616400    0.00000       Uiso       1.00
      C322          C  0.3113300  0.9287400  0.2416900    0.00000       Uiso       1.00
      C323          C  0.3530100  0.9695200  0.2554800    0.00000       Uiso       1.00
      B324          B  0.2342600  0.8130000  0.2756800    0.00000       Uiso       1.00
      O325          O  0.8043600  0.7440800  0.2941600    0.00000       Uiso       1.00
      C326          C  0.4753100  0.2142500  0.6251800    0.00000       Uiso       1.00
      H327          H  0.4790100  0.1922700  0.6406600    0.00000       Uiso       1.00
      H328          H  0.4532500  0.2097600  0.6100600    0.00000       Uiso       1.00
      H329          H  0.5215500  0.7465200  0.9347700    0.00000       Uiso       1.00
      C330          C  0.7077700  0.6005000  0.2503700    0.00000       Uiso       1.00
      C331          C  0.7451100  0.6560900  0.2661800    0.00000       Uiso       1.00
      C332          C  0.7328900  0.6109300  0.2296700    0.00000       Uiso       1.00
      C333          C  0.7515500  0.6384100  0.2374400    0.00000       Uiso       1.00
      C334          C  0.7013400  0.6181600  0.2790100    0.00000       Uiso       1.00
      C335          C  0.7197800  0.6457300  0.2867700    0.00000       Uiso       1.00
      H336          H  0.3068300  0.9405000  0.2184700    0.00000       Uiso       1.00
      H337          H  0.7382000  0.5976700  0.2074500    0.00000       Uiso       1.00
      F338          F  0.7756600  0.6475700  0.2167000    0.00000       Uiso       1.00
      H339          H  0.6820400  0.6107300  0.2954200    0.00000       Uiso       1.00
      H340          H  0.7142100  0.6587900  0.3090500    0.00000       Uiso       1.00
      N341          N  0.8329400  0.4405500  0.7616400    0.00000       Uiso       1.00
      C342          C  0.8113300  0.4287400  0.7416900    0.00000       Uiso       1.00
      C343          C  0.8530099  0.4695200  0.7554800    0.00000       Uiso       1.00
      B344          B  0.7342600  0.3130000  0.7756800    0.00000       Uiso       1.00
      O345          O  0.3043600  0.2440800  0.7941599    0.00000       Uiso       1.00
      C346          C  0.9753101  0.7142500  0.1251800    0.00000       Uiso       1.00
      H347          H  0.9790100  0.6922700  0.1406600    0.00000       Uiso       1.00
      H348          H  0.9532499  0.7097600  0.1100600    0.00000       Uiso       1.00
      H349          H  0.0215500  0.2465200  0.4347700    0.00000       Uiso       1.00
      C350          C  0.2077700  0.1005000  0.7503700    0.00000       Uiso       1.00
      C351          C  0.2451100  0.1560900  0.7661800    0.00000       Uiso       1.00
      C352          C  0.2328900  0.1109300  0.7296700    0.00000       Uiso       1.00
      C353          C  0.2515500  0.1384100  0.7374400    0.00000       Uiso       1.00
      C354          C  0.2013400  0.1181600  0.7790100    0.00000       Uiso       1.00
      C355          C  0.2197800  0.1457300  0.7867700    0.00000       Uiso       1.00
      H356          H  0.8068300  0.4405000  0.7184700    0.00000       Uiso       1.00
      H357          H  0.2382000  0.0976700  0.7074500    0.00000       Uiso       1.00
      F358          F  0.2756600  0.1475700  0.7167000    0.00000       Uiso       1.00
      H359          H  0.1820400  0.1107300  0.7954200    0.00000       Uiso       1.00
      H360          H  0.2142100  0.1587900  0.8090500    0.00000       Uiso       1.00
      N361          N  0.6670600  0.4405500  0.2383600    0.00000       Uiso       1.00
      C362          C  0.6886700  0.4287400  0.2583100    0.00000       Uiso       1.00
      C363          C  0.6469900  0.4695200  0.2445200    0.00000       Uiso       1.00
      B364          B  0.7657400  0.3130000  0.2243200    0.00000       Uiso       1.00
      O365          O  0.1956400  0.2440800  0.2058400    0.00000       Uiso       1.00
      C366          C  0.5246900  0.7142500  0.8748199    0.00000       Uiso       1.00
      H367          H  0.5209900  0.6922700  0.8593400    0.00000       Uiso       1.00
      H368          H  0.5467500  0.7097600  0.8899400    0.00000       Uiso       1.00
      H369          H  0.4784500  0.2465200  0.5652300    0.00000       Uiso       1.00
      C370          C  0.2922300  0.1005000  0.2496300    0.00000       Uiso       1.00
      C371          C  0.2548900  0.1560900  0.2338200    0.00000       Uiso       1.00
      C372          C  0.2671100  0.1109300  0.2703300    0.00000       Uiso       1.00
      C373          C  0.2484500  0.1384100  0.2625600    0.00000       Uiso       1.00
      C374          C  0.2986600  0.1181600  0.2209900    0.00000       Uiso       1.00
      C375          C  0.2802200  0.1457300  0.2132300    0.00000       Uiso       1.00
      H376          H  0.6931700  0.4405000  0.2815300    0.00000       Uiso       1.00
      H377          H  0.2618000  0.0976700  0.2925500    0.00000       Uiso       1.00
      F378          F  0.2243400  0.1475700  0.2833000    0.00000       Uiso       1.00
      H379          H  0.3179600  0.1107300  0.2045800    0.00000       Uiso       1.00
      H380          H  0.2857900  0.1587900  0.1909500    0.00000       Uiso       1.00
      N381          N  0.1670600  0.9405500  0.7383600    0.00000       Uiso       1.00
      C382          C  0.1886700  0.9287400  0.7583100    0.00000       Uiso       1.00
      C383          C  0.1469900  0.9695200  0.7445200    0.00000       Uiso       1.00
      B384          B  0.2657400  0.8130000  0.7243200    0.00000       Uiso       1.00
      O385          O  0.6956400  0.7440800  0.7058400    0.00000       Uiso       1.00
      C386          C  0.0246900  0.2142500  0.3748200    0.00000       Uiso       1.00
      H387          H  0.0209900  0.1922700  0.3593400    0.00000       Uiso       1.00
      H388          H  0.0467500  0.2097600  0.3899400    0.00000       Uiso       1.00
      H389          H  0.9784499  0.7465200  0.0652300    0.00000       Uiso       1.00
      C390          C  0.7922300  0.6005000  0.7496300    0.00000       Uiso       1.00
      C391          C  0.7548900  0.6560900  0.7338200    0.00000       Uiso       1.00
      C392          C  0.7671100  0.6109300  0.7703300    0.00000       Uiso       1.00
      C393          C  0.7484500  0.6384100  0.7625600    0.00000       Uiso       1.00
      C394          C  0.7986599  0.6181600  0.7209900    0.00000       Uiso       1.00
      C395          C  0.7802199  0.6457300  0.7132300    0.00000       Uiso       1.00
      H396          H  0.1931700  0.9405000  0.7815301    0.00000       Uiso       1.00
      H397          H  0.7618000  0.5976700  0.7925500    0.00000       Uiso       1.00
      F398          F  0.7243400  0.6475700  0.7832999    0.00000       Uiso       1.00
      H399          H  0.8179600  0.6107300  0.7045800    0.00000       Uiso       1.00
      H400          H  0.7857900  0.6587900  0.6909500    0.00000       Uiso       1.00
      N401          N  0.8329400  0.5594500  0.7383600    0.00000       Uiso       1.00
      C402          C  0.8113300  0.5712600  0.7583100    0.00000       Uiso       1.00
      C403          C  0.8530099  0.5304800  0.7445200    0.00000       Uiso       1.00
      B404          B  0.7342600  0.6870000  0.7243200    0.00000       Uiso       1.00
      O405          O  0.3043600  0.7559200  0.7058400    0.00000       Uiso       1.00
      C406          C  0.9753101  0.2857500  0.3748200    0.00000       Uiso       1.00
      H407          H  0.9790100  0.3077300  0.3593400    0.00000       Uiso       1.00
      H408          H  0.9532499  0.2902400  0.3899400    0.00000       Uiso       1.00
      H409          H  0.0215500  0.7534800  0.0652300    0.00000       Uiso       1.00
      C410          C  0.2077700  0.8995000  0.7496300    0.00000       Uiso       1.00
      C411          C  0.2451100  0.8439099  0.7338200    0.00000       Uiso       1.00
      C412          C  0.2328900  0.8890700  0.7703300    0.00000       Uiso       1.00
      C413          C  0.2515500  0.8615900  0.7625600    0.00000       Uiso       1.00
      C414          C  0.2013400  0.8818400  0.7209900    0.00000       Uiso       1.00
      C415          C  0.2197800  0.8542699  0.7132300    0.00000       Uiso       1.00
      H416          H  0.8068300  0.5595000  0.7815301    0.00000       Uiso       1.00
      H417          H  0.2382000  0.9023299  0.7925500    0.00000       Uiso       1.00
      F418          F  0.2756600  0.8524299  0.7832999    0.00000       Uiso       1.00
      H419          H  0.1820400  0.8892701  0.7045800    0.00000       Uiso       1.00
      H420          H  0.2142100  0.8412099  0.6909500    0.00000       Uiso       1.00
      N421          N  0.3329400  0.0594500  0.2383600    0.00000       Uiso       1.00
      C422          C  0.3113300  0.0712600  0.2583100    0.00000       Uiso       1.00
      C423          C  0.3530100  0.0304800  0.2445200    0.00000       Uiso       1.00
      B424          B  0.2342600  0.1870000  0.2243200    0.00000       Uiso       1.00
      O425          O  0.8043600  0.2559200  0.2058400    0.00000       Uiso       1.00
      C426          C  0.4753100  0.7857500  0.8748199    0.00000       Uiso       1.00
      H427          H  0.4790100  0.8077300  0.8593400    0.00000       Uiso       1.00
      H428          H  0.4532500  0.7902400  0.8899400    0.00000       Uiso       1.00
      H429          H  0.5215500  0.2534800  0.5652300    0.00000       Uiso       1.00
      C430          C  0.7077700  0.3995000  0.2496300    0.00000       Uiso       1.00
      C431          C  0.7451100  0.3439100  0.2338200    0.00000       Uiso       1.00
      C432          C  0.7328900  0.3890700  0.2703300    0.00000       Uiso       1.00
      C433          C  0.7515500  0.3615900  0.2625600    0.00000       Uiso       1.00
      C434          C  0.7013400  0.3818400  0.2209900    0.00000       Uiso       1.00
      C435          C  0.7197800  0.3542700  0.2132300    0.00000       Uiso       1.00
      H436          H  0.3068300  0.0595000  0.2815300    0.00000       Uiso       1.00
      H437          H  0.7382000  0.4023300  0.2925500    0.00000       Uiso       1.00
      F438          F  0.7756600  0.3524300  0.2833000    0.00000       Uiso       1.00
      H439          H  0.6820400  0.3892700  0.2045800    0.00000       Uiso       1.00
      H440          H  0.7142100  0.3412100  0.1909500    0.00000       Uiso       1.00
      N441          N  0.1670600  0.0594500  0.7616400    0.00000       Uiso       1.00
      C442          C  0.1886700  0.0712600  0.7416900    0.00000       Uiso       1.00
      C443          C  0.1469900  0.0304800  0.7554800    0.00000       Uiso       1.00
      B444          B  0.2657400  0.1870000  0.7756800    0.00000       Uiso       1.00
      O445          O  0.6956400  0.2559200  0.7941599    0.00000       Uiso       1.00
      C446          C  0.0246900  0.7857500  0.1251800    0.00000       Uiso       1.00
      H447          H  0.0209900  0.8077300  0.1406600    0.00000       Uiso       1.00
      H448          H  0.0467500  0.7902400  0.1100600    0.00000       Uiso       1.00
      H449          H  0.9784499  0.2534800  0.4347700    0.00000       Uiso       1.00
      C450          C  0.7922300  0.3995000  0.7503700    0.00000       Uiso       1.00
      C451          C  0.7548900  0.3439100  0.7661800    0.00000       Uiso       1.00
      C452          C  0.7671100  0.3890700  0.7296700    0.00000       Uiso       1.00
      C453          C  0.7484500  0.3615900  0.7374400    0.00000       Uiso       1.00
      C454          C  0.7986599  0.3818400  0.7790100    0.00000       Uiso       1.00
      C455          C  0.7802199  0.3542700  0.7867700    0.00000       Uiso       1.00
      H456          H  0.1931700  0.0595000  0.7184700    0.00000       Uiso       1.00
      H457          H  0.7618000  0.4023300  0.7074500    0.00000       Uiso       1.00
      F458          F  0.7243400  0.3524300  0.7167000    0.00000       Uiso       1.00
      H459          H  0.8179600  0.3892700  0.7954200    0.00000       Uiso       1.00
      H460          H  0.7857900  0.3412100  0.8090500    0.00000       Uiso       1.00
      N461          N  0.6670600  0.5594500  0.2616400    0.00000       Uiso       1.00
      C462          C  0.6886700  0.5712600  0.2416900    0.00000       Uiso       1.00
      C463          C  0.6469900  0.5304800  0.2554800    0.00000       Uiso       1.00
      B464          B  0.7657400  0.6870000  0.2756800    0.00000       Uiso       1.00
      O465          O  0.1956400  0.7559200  0.2941600    0.00000       Uiso       1.00
      C466          C  0.5246900  0.2857500  0.6251800    0.00000       Uiso       1.00
      H467          H  0.5209900  0.3077300  0.6406600    0.00000       Uiso       1.00
      H468          H  0.5467500  0.2902400  0.6100600    0.00000       Uiso       1.00
      H469          H  0.4784500  0.7534800  0.9347700    0.00000       Uiso       1.00
      C470          C  0.2922300  0.8995000  0.2503700    0.00000       Uiso       1.00
      C471          C  0.2548900  0.8439099  0.2661800    0.00000       Uiso       1.00
      C472          C  0.2671100  0.8890700  0.2296700    0.00000       Uiso       1.00
      C473          C  0.2484500  0.8615900  0.2374400    0.00000       Uiso       1.00
      C474          C  0.2986600  0.8818400  0.2790100    0.00000       Uiso       1.00
      C475          C  0.2802200  0.8542699  0.2867700    0.00000       Uiso       1.00
      H476          H  0.6931700  0.5595000  0.2184700    0.00000       Uiso       1.00
      H477          H  0.2618000  0.9023299  0.2074500    0.00000       Uiso       1.00
      F478          F  0.2243400  0.8524299  0.2167000    0.00000       Uiso       1.00
      H479          H  0.3179600  0.8892701  0.2954200    0.00000       Uiso       1.00
      H480          H  0.2857900  0.8412099  0.3090500    0.00000       Uiso       1.00
      N481          N  0.5829400  0.5116400  0.1905500    0.00000       Uiso       1.00
      C482          C  0.5613300  0.4916900  0.1787400    0.00000       Uiso       1.00
      C483          C  0.6030100  0.5054800  0.2195200    0.00000       Uiso       1.00
      B484          B  0.4842600  0.5256800  0.0630000    0.00000       Uiso       1.00
      O485          O  0.0543600  0.5441600  0.9940799    0.00000       Uiso       1.00
      C486          C  0.7253100  0.8751800  0.4642500    0.00000       Uiso       1.00
      H487          H  0.7290100  0.8906600  0.4422700    0.00000       Uiso       1.00
      H488          H  0.7032500  0.8600600  0.4597600    0.00000       Uiso       1.00
      H489          H  0.7715500  0.1847700  0.9965200    0.00000       Uiso       1.00
      C490          C  0.9577700  0.5003700  0.8505000    0.00000       Uiso       1.00
      C491          C  0.9951100  0.5161800  0.9060900    0.00000       Uiso       1.00
      C492          C  0.9828900  0.4796700  0.8609301    0.00000       Uiso       1.00
      C493          C  0.0015500  0.4874400  0.8884100    0.00000       Uiso       1.00
      C494          C  0.9513400  0.5290100  0.8681600    0.00000       Uiso       1.00
      C495          C  0.9697800  0.5367700  0.8957300    0.00000       Uiso       1.00
      H496          H  0.5568300  0.4684700  0.1905000    0.00000       Uiso       1.00
      H497          H  0.9882000  0.4574500  0.8476700    0.00000       Uiso       1.00
      F498          F  0.0256600  0.4667000  0.8975700    0.00000       Uiso       1.00
      H499          H  0.9320400  0.5454200  0.8607300    0.00000       Uiso       1.00
      H500          H  0.9642100  0.5590500  0.9087900    0.00000       Uiso       1.00
      N501          N  0.0829400  0.0116400  0.6905500    0.00000       Uiso       1.00
      C502          C  0.0613300  0.9916900  0.6787400    0.00000       Uiso       1.00
      C503          C  0.1030100  0.0054800  0.7195200    0.00000       Uiso       1.00
      B504          B  0.9842601  0.0256800  0.5630000    0.00000       Uiso       1.00
      O505          O  0.5543600  0.0441600  0.4940800    0.00000       Uiso       1.00
      C506          C  0.2253100  0.3751800  0.9642501    0.00000       Uiso       1.00
      H507          H  0.2290100  0.3906600  0.9422699    0.00000       Uiso       1.00
      H508          H  0.2032500  0.3600600  0.9597600    0.00000       Uiso       1.00
      H509          H  0.2715500  0.6847700  0.4965200    0.00000       Uiso       1.00
      C510          C  0.4577700  0.0003700  0.3505000    0.00000       Uiso       1.00
      C511          C  0.4951100  0.0161800  0.4060900    0.00000       Uiso       1.00
      C512          C  0.4828900  0.9796700  0.3609300    0.00000       Uiso       1.00
      C513          C  0.5015500  0.9874399  0.3884100    0.00000       Uiso       1.00
      C514          C  0.4513400  0.0290100  0.3681600    0.00000       Uiso       1.00
      C515          C  0.4697800  0.0367700  0.3957300    0.00000       Uiso       1.00
      H516          H  0.0568300  0.9684700  0.6905000    0.00000       Uiso       1.00
      H517          H  0.4882000  0.9574500  0.3476700    0.00000       Uiso       1.00
      F518          F  0.5256600  0.9667000  0.3975700    0.00000       Uiso       1.00
      H519          H  0.4320400  0.0454200  0.3607300    0.00000       Uiso       1.00
      H520          H  0.4642100  0.0590500  0.4087900    0.00000       Uiso       1.00
      N521          N  0.9170600  0.4883600  0.6905500    0.00000       Uiso       1.00
      C522          C  0.9386700  0.5083100  0.6787400    0.00000       Uiso       1.00
      C523          C  0.8969900  0.4945200  0.7195200    0.00000       Uiso       1.00
      B524          B  0.0157400  0.4743200  0.5630000    0.00000       Uiso       1.00
      O525          O  0.4456400  0.4558400  0.4940800    0.00000       Uiso       1.00
      C526          C  0.7746900  0.1248200  0.9642501    0.00000       Uiso       1.00
      H527          H  0.7709900  0.1093400  0.9422699    0.00000       Uiso       1.00
      H528          H  0.7967500  0.1399400  0.9597600    0.00000       Uiso       1.00
      H529          H  0.7284500  0.8152300  0.4965200    0.00000       Uiso       1.00
      C530          C  0.5422300  0.4996300  0.3505000    0.00000       Uiso       1.00
      C531          C  0.5048900  0.4838200  0.4060900    0.00000       Uiso       1.00
      C532          C  0.5171100  0.5203300  0.3609300    0.00000       Uiso       1.00
      C533          C  0.4984500  0.5125600  0.3884100    0.00000       Uiso       1.00
      C534          C  0.5486600  0.4709900  0.3681600    0.00000       Uiso       1.00
      C535          C  0.5302200  0.4632300  0.3957300    0.00000       Uiso       1.00
      H536          H  0.9431700  0.5315300  0.6905000    0.00000       Uiso       1.00
      H537          H  0.5118000  0.5425500  0.3476700    0.00000       Uiso       1.00
      F538          F  0.4743400  0.5333000  0.3975700    0.00000       Uiso       1.00
      H539          H  0.5679600  0.4545800  0.3607300    0.00000       Uiso       1.00
      H540          H  0.5357900  0.4409500  0.4087900    0.00000       Uiso       1.00
      N541          N  0.4170600  0.9883600  0.1905500    0.00000       Uiso       1.00
      C542          C  0.4386700  0.0083100  0.1787400    0.00000       Uiso       1.00
      C543          C  0.3969900  0.9945200  0.2195200    0.00000       Uiso       1.00
      B544          B  0.5157400  0.9743200  0.0630000    0.00000       Uiso       1.00
      O545          O  0.9456400  0.9558400  0.9940799    0.00000       Uiso       1.00
      C546          C  0.2746900  0.6248200  0.4642500    0.00000       Uiso       1.00
      H547          H  0.2709900  0.6093400  0.4422700    0.00000       Uiso       1.00
      H548          H  0.2967500  0.6399400  0.4597600    0.00000       Uiso       1.00
      H549          H  0.2284500  0.3152300  0.9965200    0.00000       Uiso       1.00
      C550          C  0.0422300  0.9996300  0.8505000    0.00000       Uiso       1.00
      C551          C  0.0048900  0.9838200  0.9060900    0.00000       Uiso       1.00
      C552          C  0.0171100  0.0203300  0.8609301    0.00000       Uiso       1.00
      C553          C  0.9984500  0.0125600  0.8884100    0.00000       Uiso       1.00
      C554          C  0.0486600  0.9709899  0.8681600    0.00000       Uiso       1.00
      C555          C  0.0302200  0.9632300  0.8957300    0.00000       Uiso       1.00
      H556          H  0.4431700  0.0315300  0.1905000    0.00000       Uiso       1.00
      H557          H  0.0118000  0.0425500  0.8476700    0.00000       Uiso       1.00
      F558          F  0.9743401  0.0333000  0.8975700    0.00000       Uiso       1.00
      H559          H  0.0679600  0.9545800  0.8607300    0.00000       Uiso       1.00
      H560          H  0.0357900  0.9409500  0.9087900    0.00000       Uiso       1.00
      N561          N  0.0829400  0.9883600  0.8094499    0.00000       Uiso       1.00
      C562          C  0.0613300  0.0083100  0.8212600    0.00000       Uiso       1.00
      C563          C  0.1030100  0.9945200  0.7804800    0.00000       Uiso       1.00
      B564          B  0.9842601  0.9743200  0.9370000    0.00000       Uiso       1.00
      O565          O  0.5543600  0.9558400  0.0059200    0.00000       Uiso       1.00
      C566          C  0.2253100  0.6248200  0.5357500    0.00000       Uiso       1.00
      H567          H  0.2290100  0.6093400  0.5577300    0.00000       Uiso       1.00
      H568          H  0.2032500  0.6399400  0.5402400    0.00000       Uiso       1.00
      H569          H  0.2715500  0.3152300  0.0034800    0.00000       Uiso       1.00
      C570          C  0.4577700  0.9996300  0.1495000    0.00000       Uiso       1.00
      C571          C  0.4951100  0.9838200  0.0939100    0.00000       Uiso       1.00
      C572          C  0.4828900  0.0203300  0.1390700    0.00000       Uiso       1.00
      C573          C  0.5015500  0.0125600  0.1115900    0.00000       Uiso       1.00
      C574          C  0.4513400  0.9709899  0.1318400    0.00000       Uiso       1.00
      C575          C  0.4697800  0.9632300  0.1042700    0.00000       Uiso       1.00
      H576          H  0.0568300  0.0315300  0.8095000    0.00000       Uiso       1.00
      H577          H  0.4882000  0.0425500  0.1523300    0.00000       Uiso       1.00
      F578          F  0.5256600  0.0333000  0.1024300    0.00000       Uiso       1.00
      H579          H  0.4320400  0.9545800  0.1392700    0.00000       Uiso       1.00
      H580          H  0.4642100  0.9409500  0.0912100    0.00000       Uiso       1.00
      N581          N  0.5829400  0.4883600  0.3094500    0.00000       Uiso       1.00
      C582          C  0.5613300  0.5083100  0.3212600    0.00000       Uiso       1.00
      C583          C  0.6030100  0.4945200  0.2804800    0.00000       Uiso       1.00
      B584          B  0.4842600  0.4743200  0.4370000    0.00000       Uiso       1.00
      O585          O  0.0543600  0.4558400  0.5059200    0.00000       Uiso       1.00
      C586          C  0.7253100  0.1248200  0.0357500    0.00000       Uiso       1.00
      H587          H  0.7290100  0.1093400  0.0577300    0.00000       Uiso       1.00
      H588          H  0.7032500  0.1399400  0.0402400    0.00000       Uiso       1.00
      H589          H  0.7715500  0.8152300  0.5034800    0.00000       Uiso       1.00
      C590          C  0.9577700  0.4996300  0.6495000    0.00000       Uiso       1.00
      C591          C  0.9951100  0.4838200  0.5939100    0.00000       Uiso       1.00
      C592          C  0.9828900  0.5203300  0.6390700    0.00000       Uiso       1.00
      C593          C  0.0015500  0.5125600  0.6115900    0.00000       Uiso       1.00
      C594          C  0.9513400  0.4709900  0.6318400    0.00000       Uiso       1.00
      C595          C  0.9697800  0.4632300  0.6042700    0.00000       Uiso       1.00
      H596          H  0.5568300  0.5315300  0.3095000    0.00000       Uiso       1.00
      H597          H  0.9882000  0.5425500  0.6523300    0.00000       Uiso       1.00
      F598          F  0.0256600  0.5333000  0.6024300    0.00000       Uiso       1.00
      H599          H  0.9320400  0.4545800  0.6392700    0.00000       Uiso       1.00
      H600          H  0.9642100  0.4409500  0.5912100    0.00000       Uiso       1.00
      N601          N  0.4170600  0.0116400  0.3094500    0.00000       Uiso       1.00
      C602          C  0.4386700  0.9916900  0.3212600    0.00000       Uiso       1.00
      C603          C  0.3969900  0.0054800  0.2804800    0.00000       Uiso       1.00
      B604          B  0.5157400  0.0256800  0.4370000    0.00000       Uiso       1.00
      O605          O  0.9456400  0.0441600  0.5059200    0.00000       Uiso       1.00
      C606          C  0.2746900  0.3751800  0.0357500    0.00000       Uiso       1.00
      H607          H  0.2709900  0.3906600  0.0577300    0.00000       Uiso       1.00
      H608          H  0.2967500  0.3600600  0.0402400    0.00000       Uiso       1.00
      H609          H  0.2284500  0.6847700  0.5034800    0.00000       Uiso       1.00
      C610          C  0.0422300  0.0003700  0.6495000    0.00000       Uiso       1.00
      C611          C  0.0048900  0.0161800  0.5939100    0.00000       Uiso       1.00
      C612          C  0.0171100  0.9796700  0.6390700    0.00000       Uiso       1.00
      C613          C  0.9984500  0.9874399  0.6115900    0.00000       Uiso       1.00
      C614          C  0.0486600  0.0290100  0.6318400    0.00000       Uiso       1.00
      C615          C  0.0302200  0.0367700  0.6042700    0.00000       Uiso       1.00
      H616          H  0.4431700  0.9684700  0.3095000    0.00000       Uiso       1.00
      H617          H  0.0118000  0.9574500  0.6523300    0.00000       Uiso       1.00
      F618          F  0.9743401  0.9667000  0.6024300    0.00000       Uiso       1.00
      H619          H  0.0679600  0.0454200  0.6392700    0.00000       Uiso       1.00
      H620          H  0.0357900  0.0590500  0.5912100    0.00000       Uiso       1.00
      N621          N  0.9170600  0.5116400  0.8094499    0.00000       Uiso       1.00
      C622          C  0.9386700  0.4916900  0.8212600    0.00000       Uiso       1.00
      C623          C  0.8969900  0.5054800  0.7804800    0.00000       Uiso       1.00
      B624          B  0.0157400  0.5256800  0.9370000    0.00000       Uiso       1.00
      O625          O  0.4456400  0.5441600  0.0059200    0.00000       Uiso       1.00
      C626          C  0.7746900  0.8751800  0.5357500    0.00000       Uiso       1.00
      H627          H  0.7709900  0.8906600  0.5577300    0.00000       Uiso       1.00
      H628          H  0.7967500  0.8600600  0.5402400    0.00000       Uiso       1.00
      H629          H  0.7284500  0.1847700  0.0034800    0.00000       Uiso       1.00
      C630          C  0.5422300  0.5003700  0.1495000    0.00000       Uiso       1.00
      C631          C  0.5048900  0.5161800  0.0939100    0.00000       Uiso       1.00
      C632          C  0.5171100  0.4796700  0.1390700    0.00000       Uiso       1.00
      C633          C  0.4984500  0.4874400  0.1115900    0.00000       Uiso       1.00
      C634          C  0.5486600  0.5290100  0.1318400    0.00000       Uiso       1.00
      C635          C  0.5302200  0.5367700  0.1042700    0.00000       Uiso       1.00
      H636          H  0.9431700  0.4684700  0.8095000    0.00000       Uiso       1.00
      H637          H  0.5118000  0.4574500  0.1523300    0.00000       Uiso       1.00
      F638          F  0.4743400  0.4667000  0.1024300    0.00000       Uiso       1.00
      H639          H  0.5679600  0.5454200  0.1392700    0.00000       Uiso       1.00
      H640          H  0.5357900  0.5590500  0.0912100    0.00000       Uiso       1.00
      N641          N  0.5116400  0.1905500  0.5829400    0.00000       Uiso       1.00
      C642          C  0.4916900  0.1787400  0.5613300    0.00000       Uiso       1.00
      C643          C  0.5054800  0.2195200  0.6030100    0.00000       Uiso       1.00
      B644          B  0.5256800  0.0630000  0.4842600    0.00000       Uiso       1.00
      O645          O  0.5441600  0.9940799  0.0543600    0.00000       Uiso       1.00
      C646          C  0.8751800  0.4642500  0.7253100    0.00000       Uiso       1.00
      H647          H  0.8906600  0.4422700  0.7290100    0.00000       Uiso       1.00
      H648          H  0.8600600  0.4597600  0.7032500    0.00000       Uiso       1.00
      H649          H  0.1847700  0.9965200  0.7715500    0.00000       Uiso       1.00
      C650          C  0.5003700  0.8505000  0.9577700    0.00000       Uiso       1.00
      C651          C  0.5161800  0.9060900  0.9951100    0.00000       Uiso       1.00
      C652          C  0.4796700  0.8609301  0.9828900    0.00000       Uiso       1.00
      C653          C  0.4874400  0.8884100  0.0015500    0.00000       Uiso       1.00
      C654          C  0.5290100  0.8681600  0.9513400    0.00000       Uiso       1.00
      C655          C  0.5367700  0.8957300  0.9697800    0.00000       Uiso       1.00
      H656          H  0.4684700  0.1905000  0.5568300    0.00000       Uiso       1.00
      H657          H  0.4574500  0.8476700  0.9882000    0.00000       Uiso       1.00
      F658          F  0.4667000  0.8975700  0.0256600    0.00000       Uiso       1.00
      H659          H  0.5454200  0.8607300  0.9320400    0.00000       Uiso       1.00
      H660          H  0.5590500  0.9087900  0.9642100    0.00000       Uiso       1.00
      N661          N  0.0116400  0.6905500  0.0829400    0.00000       Uiso       1.00
      C662          C  0.9916900  0.6787400  0.0613300    0.00000       Uiso       1.00
      C663          C  0.0054800  0.7195200  0.1030100    0.00000       Uiso       1.00
      B664          B  0.0256800  0.5630000  0.9842601    0.00000       Uiso       1.00
      O665          O  0.0441600  0.4940800  0.5543600    0.00000       Uiso       1.00
      C666          C  0.3751800  0.9642501  0.2253100    0.00000       Uiso       1.00
      H667          H  0.3906600  0.9422699  0.2290100    0.00000       Uiso       1.00
      H668          H  0.3600600  0.9597600  0.2032500    0.00000       Uiso       1.00
      H669          H  0.6847700  0.4965200  0.2715500    0.00000       Uiso       1.00
      C670          C  0.0003700  0.3505000  0.4577700    0.00000       Uiso       1.00
      C671          C  0.0161800  0.4060900  0.4951100    0.00000       Uiso       1.00
      C672          C  0.9796700  0.3609300  0.4828900    0.00000       Uiso       1.00
      C673          C  0.9874399  0.3884100  0.5015500    0.00000       Uiso       1.00
      C674          C  0.0290100  0.3681600  0.4513400    0.00000       Uiso       1.00
      C675          C  0.0367700  0.3957300  0.4697800    0.00000       Uiso       1.00
      H676          H  0.9684700  0.6905000  0.0568300    0.00000       Uiso       1.00
      H677          H  0.9574500  0.3476700  0.4882000    0.00000       Uiso       1.00
      F678          F  0.9667000  0.3975700  0.5256600    0.00000       Uiso       1.00
      H679          H  0.0454200  0.3607300  0.4320400    0.00000       Uiso       1.00
      H680          H  0.0590500  0.4087900  0.4642100    0.00000       Uiso       1.00
      N681          N  0.4883600  0.6905500  0.9170600    0.00000       Uiso       1.00
      C682          C  0.5083100  0.6787400  0.9386700    0.00000       Uiso       1.00
      C683          C  0.4945200  0.7195200  0.8969900    0.00000       Uiso       1.00
      B684          B  0.4743200  0.5630000  0.0157400    0.00000       Uiso       1.00
      O685          O  0.4558400  0.4940800  0.4456400    0.00000       Uiso       1.00
      C686          C  0.1248200  0.9642501  0.7746900    0.00000       Uiso       1.00
      H687          H  0.1093400  0.9422699  0.7709900    0.00000       Uiso       1.00
      H688          H  0.1399400  0.9597600  0.7967500    0.00000       Uiso       1.00
      H689          H  0.8152300  0.4965200  0.7284500    0.00000       Uiso       1.00
      C690          C  0.4996300  0.3505000  0.5422300    0.00000       Uiso       1.00
      C691          C  0.4838200  0.4060900  0.5048900    0.00000       Uiso       1.00
      C692          C  0.5203300  0.3609300  0.5171100    0.00000       Uiso       1.00
      C693          C  0.5125600  0.3884100  0.4984500    0.00000       Uiso       1.00
      C694          C  0.4709900  0.3681600  0.5486600    0.00000       Uiso       1.00
      C695          C  0.4632300  0.3957300  0.5302200    0.00000       Uiso       1.00
      H696          H  0.5315300  0.6905000  0.9431700    0.00000       Uiso       1.00
      H697          H  0.5425500  0.3476700  0.5118000    0.00000       Uiso       1.00
      F698          F  0.5333000  0.3975700  0.4743400    0.00000       Uiso       1.00
      H699          H  0.4545800  0.3607300  0.5679600    0.00000       Uiso       1.00
      H700          H  0.4409500  0.4087900  0.5357900    0.00000       Uiso       1.00
      N701          N  0.9883600  0.1905500  0.4170600    0.00000       Uiso       1.00
      C702          C  0.0083100  0.1787400  0.4386700    0.00000       Uiso       1.00
      C703          C  0.9945200  0.2195200  0.3969900    0.00000       Uiso       1.00
      B704          B  0.9743200  0.0630000  0.5157400    0.00000       Uiso       1.00
      O705          O  0.9558400  0.9940799  0.9456400    0.00000       Uiso       1.00
      C706          C  0.6248200  0.4642500  0.2746900    0.00000       Uiso       1.00
      H707          H  0.6093400  0.4422700  0.2709900    0.00000       Uiso       1.00
      H708          H  0.6399400  0.4597600  0.2967500    0.00000       Uiso       1.00
      H709          H  0.3152300  0.9965200  0.2284500    0.00000       Uiso       1.00
      C710          C  0.9996300  0.8505000  0.0422300    0.00000       Uiso       1.00
      C711          C  0.9838200  0.9060900  0.0048900    0.00000       Uiso       1.00
      C712          C  0.0203300  0.8609301  0.0171100    0.00000       Uiso       1.00
      C713          C  0.0125600  0.8884100  0.9984500    0.00000       Uiso       1.00
      C714          C  0.9709899  0.8681600  0.0486600    0.00000       Uiso       1.00
      C715          C  0.9632300  0.8957300  0.0302200    0.00000       Uiso       1.00
      H716          H  0.0315300  0.1905000  0.4431700    0.00000       Uiso       1.00
      H717          H  0.0425500  0.8476700  0.0118000    0.00000       Uiso       1.00
      F718          F  0.0333000  0.8975700  0.9743401    0.00000       Uiso       1.00
      H719          H  0.9545800  0.8607300  0.0679600    0.00000       Uiso       1.00
      H720          H  0.9409500  0.9087900  0.0357900    0.00000       Uiso       1.00
      N721          N  0.9883600  0.8094499  0.0829400    0.00000       Uiso       1.00
      C722          C  0.0083100  0.8212600  0.0613300    0.00000       Uiso       1.00
      C723          C  0.9945200  0.7804800  0.1030100    0.00000       Uiso       1.00
      B724          B  0.9743200  0.9370000  0.9842601    0.00000       Uiso       1.00
      O725          O  0.9558400  0.0059200  0.5543600    0.00000       Uiso       1.00
      C726          C  0.6248200  0.5357500  0.2253100    0.00000       Uiso       1.00
      H727          H  0.6093400  0.5577300  0.2290100    0.00000       Uiso       1.00
      H728          H  0.6399400  0.5402400  0.2032500    0.00000       Uiso       1.00
      H729          H  0.3152300  0.0034800  0.2715500    0.00000       Uiso       1.00
      C730          C  0.9996300  0.1495000  0.4577700    0.00000       Uiso       1.00
      C731          C  0.9838200  0.0939100  0.4951100    0.00000       Uiso       1.00
      C732          C  0.0203300  0.1390700  0.4828900    0.00000       Uiso       1.00
      C733          C  0.0125600  0.1115900  0.5015500    0.00000       Uiso       1.00
      C734          C  0.9709899  0.1318400  0.4513400    0.00000       Uiso       1.00
      C735          C  0.9632300  0.1042700  0.4697800    0.00000       Uiso       1.00
      H736          H  0.0315300  0.8095000  0.0568300    0.00000       Uiso       1.00
      H737          H  0.0425500  0.1523300  0.4882000    0.00000       Uiso       1.00
      F738          F  0.0333000  0.1024300  0.5256600    0.00000       Uiso       1.00
      H739          H  0.9545800  0.1392700  0.4320400    0.00000       Uiso       1.00
      H740          H  0.9409500  0.0912100  0.4642100    0.00000       Uiso       1.00
      N741          N  0.4883600  0.3094500  0.5829400    0.00000       Uiso       1.00
      C742          C  0.5083100  0.3212600  0.5613300    0.00000       Uiso       1.00
      C743          C  0.4945200  0.2804800  0.6030100    0.00000       Uiso       1.00
      B744          B  0.4743200  0.4370000  0.4842600    0.00000       Uiso       1.00
      O745          O  0.4558400  0.5059200  0.0543600    0.00000       Uiso       1.00
      C746          C  0.1248200  0.0357500  0.7253100    0.00000       Uiso       1.00
      H747          H  0.1093400  0.0577300  0.7290100    0.00000       Uiso       1.00
      H748          H  0.1399400  0.0402400  0.7032500    0.00000       Uiso       1.00
      H749          H  0.8152300  0.5034800  0.7715500    0.00000       Uiso       1.00
      C750          C  0.4996300  0.6495000  0.9577700    0.00000       Uiso       1.00
      C751          C  0.4838200  0.5939100  0.9951100    0.00000       Uiso       1.00
      C752          C  0.5203300  0.6390700  0.9828900    0.00000       Uiso       1.00
      C753          C  0.5125600  0.6115900  0.0015500    0.00000       Uiso       1.00
      C754          C  0.4709900  0.6318400  0.9513400    0.00000       Uiso       1.00
      C755          C  0.4632300  0.6042700  0.9697800    0.00000       Uiso       1.00
      H756          H  0.5315300  0.3095000  0.5568300    0.00000       Uiso       1.00
      H757          H  0.5425500  0.6523300  0.9882000    0.00000       Uiso       1.00
      F758          F  0.5333000  0.6024300  0.0256600    0.00000       Uiso       1.00
      H759          H  0.4545800  0.6392700  0.9320400    0.00000       Uiso       1.00
      H760          H  0.4409500  0.5912100  0.9642100    0.00000       Uiso       1.00
      N761          N  0.0116400  0.3094500  0.4170600    0.00000       Uiso       1.00
      C762          C  0.9916900  0.3212600  0.4386700    0.00000       Uiso       1.00
      C763          C  0.0054800  0.2804800  0.3969900    0.00000       Uiso       1.00
      B764          B  0.0256800  0.4370000  0.5157400    0.00000       Uiso       1.00
      O765          O  0.0441600  0.5059200  0.9456400    0.00000       Uiso       1.00
      C766          C  0.3751800  0.0357500  0.2746900    0.00000       Uiso       1.00
      H767          H  0.3906600  0.0577300  0.2709900    0.00000       Uiso       1.00
      H768          H  0.3600600  0.0402400  0.2967500    0.00000       Uiso       1.00
      H769          H  0.6847700  0.5034800  0.2284500    0.00000       Uiso       1.00
      C770          C  0.0003700  0.6495000  0.0422300    0.00000       Uiso       1.00
      C771          C  0.0161800  0.5939100  0.0048900    0.00000       Uiso       1.00
      C772          C  0.9796700  0.6390700  0.0171100    0.00000       Uiso       1.00
      C773          C  0.9874399  0.6115900  0.9984500    0.00000       Uiso       1.00
      C774          C  0.0290100  0.6318400  0.0486600    0.00000       Uiso       1.00
      C775          C  0.0367700  0.6042700  0.0302200    0.00000       Uiso       1.00
      H776          H  0.9684700  0.3095000  0.4431700    0.00000       Uiso       1.00
      H777          H  0.9574500  0.6523300  0.0118000    0.00000       Uiso       1.00
      F778          F  0.9667000  0.6024300  0.9743401    0.00000       Uiso       1.00
      H779          H  0.0454200  0.6392700  0.0679600    0.00000       Uiso       1.00
      H780          H  0.0590500  0.5912100  0.0357900    0.00000       Uiso       1.00
      N781          N  0.5116400  0.8094499  0.9170600    0.00000       Uiso       1.00
      C782          C  0.4916900  0.8212600  0.9386700    0.00000       Uiso       1.00
      C783          C  0.5054800  0.7804800  0.8969900    0.00000       Uiso       1.00
      B784          B  0.5256800  0.9370000  0.0157400    0.00000       Uiso       1.00
      O785          O  0.5441600  0.0059200  0.4456400    0.00000       Uiso       1.00
      C786          C  0.8751800  0.5357500  0.7746900    0.00000       Uiso       1.00
      H787          H  0.8906600  0.5577300  0.7709900    0.00000       Uiso       1.00
      H788          H  0.8600600  0.5402400  0.7967500    0.00000       Uiso       1.00
      H789          H  0.1847700  0.0034800  0.7284500    0.00000       Uiso       1.00
      C790          C  0.5003700  0.1495000  0.5422300    0.00000       Uiso       1.00
      C791          C  0.5161800  0.0939100  0.5048900    0.00000       Uiso       1.00
      C792          C  0.4796700  0.1390700  0.5171100    0.00000       Uiso       1.00
      C793          C  0.4874400  0.1115900  0.4984500    0.00000       Uiso       1.00
      C794          C  0.5290100  0.1318400  0.5486600    0.00000       Uiso       1.00
      C795          C  0.5367700  0.1042700  0.5302200    0.00000       Uiso       1.00
      H796          H  0.4684700  0.8095000  0.9431700    0.00000       Uiso       1.00
      H797          H  0.4574500  0.1523300  0.5118000    0.00000       Uiso       1.00
      F798          F  0.4667000  0.1024300  0.4743400    0.00000       Uiso       1.00
      H799          H  0.5454200  0.1392700  0.5679600    0.00000       Uiso       1.00
      H800          H  0.5590500  0.0912100  0.5357900    0.00000       Uiso       1.00
      N801          N  0.1905500  0.5829400  0.5116400    0.00000       Uiso       1.00
      C802          C  0.1787400  0.5613300  0.4916900    0.00000       Uiso       1.00
      C803          C  0.2195200  0.6030100  0.5054800    0.00000       Uiso       1.00
      B804          B  0.0630000  0.4842600  0.5256800    0.00000       Uiso       1.00
      O805          O  0.9940799  0.0543600  0.5441600    0.00000       Uiso       1.00
      C806          C  0.4642500  0.7253100  0.8751800    0.00000       Uiso       1.00
      H807          H  0.4422700  0.7290100  0.8906600    0.00000       Uiso       1.00
      H808          H  0.4597600  0.7032500  0.8600600    0.00000       Uiso       1.00
      H809          H  0.9965200  0.7715500  0.1847700    0.00000       Uiso       1.00
      C810          C  0.8505000  0.9577700  0.5003700    0.00000       Uiso       1.00
      C811          C  0.9060900  0.9951100  0.5161800    0.00000       Uiso       1.00
      C812          C  0.8609301  0.9828900  0.4796700    0.00000       Uiso       1.00
      C813          C  0.8884100  0.0015500  0.4874400    0.00000       Uiso       1.00
      C814          C  0.8681600  0.9513400  0.5290100    0.00000       Uiso       1.00
      C815          C  0.8957300  0.9697800  0.5367700    0.00000       Uiso       1.00
      H816          H  0.1905000  0.5568300  0.4684700    0.00000       Uiso       1.00
      H817          H  0.8476700  0.9882000  0.4574500    0.00000       Uiso       1.00
      F818          F  0.8975700  0.0256600  0.4667000    0.00000       Uiso       1.00
      H819          H  0.8607300  0.9320400  0.5454200    0.00000       Uiso       1.00
      H820          H  0.9087900  0.9642100  0.5590500    0.00000       Uiso       1.00
      N821          N  0.6905500  0.0829400  0.0116400    0.00000       Uiso       1.00
      C822          C  0.6787400  0.0613300  0.9916900    0.00000       Uiso       1.00
      C823          C  0.7195200  0.1030100  0.0054800    0.00000       Uiso       1.00
      B824          B  0.5630000  0.9842601  0.0256800    0.00000       Uiso       1.00
      O825          O  0.4940800  0.5543600  0.0441600    0.00000       Uiso       1.00
      C826          C  0.9642501  0.2253100  0.3751800    0.00000       Uiso       1.00
      H827          H  0.9422699  0.2290100  0.3906600    0.00000       Uiso       1.00
      H828          H  0.9597600  0.2032500  0.3600600    0.00000       Uiso       1.00
      H829          H  0.4965200  0.2715500  0.6847700    0.00000       Uiso       1.00
      C830          C  0.3505000  0.4577700  0.0003700    0.00000       Uiso       1.00
      C831          C  0.4060900  0.4951100  0.0161800    0.00000       Uiso       1.00
      C832          C  0.3609300  0.4828900  0.9796700    0.00000       Uiso       1.00
      C833          C  0.3884100  0.5015500  0.9874399    0.00000       Uiso       1.00
      C834          C  0.3681600  0.4513400  0.0290100    0.00000       Uiso       1.00
      C835          C  0.3957300  0.4697800  0.0367700    0.00000       Uiso       1.00
      H836          H  0.6905000  0.0568300  0.9684700    0.00000       Uiso       1.00
      H837          H  0.3476700  0.4882000  0.9574500    0.00000       Uiso       1.00
      F838          F  0.3975700  0.5256600  0.9667000    0.00000       Uiso       1.00
      H839          H  0.3607300  0.4320400  0.0454200    0.00000       Uiso       1.00
      H840          H  0.4087900  0.4642100  0.0590500    0.00000       Uiso       1.00
      N841          N  0.6905500  0.9170600  0.4883600    0.00000       Uiso       1.00
      C842          C  0.6787400  0.9386700  0.5083100    0.00000       Uiso       1.00
      C843          C  0.7195200  0.8969900  0.4945200    0.00000       Uiso       1.00
      B844          B  0.5630000  0.0157400  0.4743200    0.00000       Uiso       1.00
      O845          O  0.4940800  0.4456400  0.4558400    0.00000       Uiso       1.00
      C846          C  0.9642501  0.7746900  0.1248200    0.00000       Uiso       1.00
      H847          H  0.9422699  0.7709900  0.1093400    0.00000       Uiso       1.00
      H848          H  0.9597600  0.7967500  0.1399400    0.00000       Uiso       1.00
      H849          H  0.4965200  0.7284500  0.8152300    0.00000       Uiso       1.00
      C850          C  0.3505000  0.5422300  0.4996300    0.00000       Uiso       1.00
      C851          C  0.4060900  0.5048900  0.4838200    0.00000       Uiso       1.00
      C852          C  0.3609300  0.5171100  0.5203300    0.00000       Uiso       1.00
      C853          C  0.3884100  0.4984500  0.5125600    0.00000       Uiso       1.00
      C854          C  0.3681600  0.5486600  0.4709900    0.00000       Uiso       1.00
      C855          C  0.3957300  0.5302200  0.4632300    0.00000       Uiso       1.00
      H856          H  0.6905000  0.9431700  0.5315300    0.00000       Uiso       1.00
      H857          H  0.3476700  0.5118000  0.5425500    0.00000       Uiso       1.00
      F858          F  0.3975700  0.4743400  0.5333000    0.00000       Uiso       1.00
      H859          H  0.3607300  0.5679600  0.4545800    0.00000       Uiso       1.00
      H860          H  0.4087900  0.5357900  0.4409500    0.00000       Uiso       1.00
      N861          N  0.1905500  0.4170600  0.9883600    0.00000       Uiso       1.00
      C862          C  0.1787400  0.4386700  0.0083100    0.00000       Uiso       1.00
      C863          C  0.2195200  0.3969900  0.9945200    0.00000       Uiso       1.00
      B864          B  0.0630000  0.5157400  0.9743200    0.00000       Uiso       1.00
      O865          O  0.9940799  0.9456400  0.9558400    0.00000       Uiso       1.00
      C866          C  0.4642500  0.2746900  0.6248200    0.00000       Uiso       1.00
      H867          H  0.4422700  0.2709900  0.6093400    0.00000       Uiso       1.00
      H868          H  0.4597600  0.2967500  0.6399400    0.00000       Uiso       1.00
      H869          H  0.9965200  0.2284500  0.3152300    0.00000       Uiso       1.00
      C870          C  0.8505000  0.0422300  0.9996300    0.00000       Uiso       1.00
      C871          C  0.9060900  0.0048900  0.9838200    0.00000       Uiso       1.00
      C872          C  0.8609301  0.0171100  0.0203300    0.00000       Uiso       1.00
      C873          C  0.8884100  0.9984500  0.0125600    0.00000       Uiso       1.00
      C874          C  0.8681600  0.0486600  0.9709899    0.00000       Uiso       1.00
      C875          C  0.8957300  0.0302200  0.9632300    0.00000       Uiso       1.00
      H876          H  0.1905000  0.4431700  0.0315300    0.00000       Uiso       1.00
      H877          H  0.8476700  0.0118000  0.0425500    0.00000       Uiso       1.00
      F878          F  0.8975700  0.9743401  0.0333000    0.00000       Uiso       1.00
      H879          H  0.8607300  0.0679600  0.9545800    0.00000       Uiso       1.00
      H880          H  0.9087900  0.0357900  0.9409500    0.00000       Uiso       1.00
      N881          N  0.8094499  0.0829400  0.9883600    0.00000       Uiso       1.00
      C882          C  0.8212600  0.0613300  0.0083100    0.00000       Uiso       1.00
      C883          C  0.7804800  0.1030100  0.9945200    0.00000       Uiso       1.00
      B884          B  0.9370000  0.9842601  0.9743200    0.00000       Uiso       1.00
      O885          O  0.0059200  0.5543600  0.9558400    0.00000       Uiso       1.00
      C886          C  0.5357500  0.2253100  0.6248200    0.00000       Uiso       1.00
      H887          H  0.5577300  0.2290100  0.6093400    0.00000       Uiso       1.00
      H888          H  0.5402400  0.2032500  0.6399400    0.00000       Uiso       1.00
      H889          H  0.0034800  0.2715500  0.3152300    0.00000       Uiso       1.00
      C890          C  0.1495000  0.4577700  0.9996300    0.00000       Uiso       1.00
      C891          C  0.0939100  0.4951100  0.9838200    0.00000       Uiso       1.00
      C892          C  0.1390700  0.4828900  0.0203300    0.00000       Uiso       1.00
      C893          C  0.1115900  0.5015500  0.0125600    0.00000       Uiso       1.00
      C894          C  0.1318400  0.4513400  0.9709899    0.00000       Uiso       1.00
      C895          C  0.1042700  0.4697800  0.9632300    0.00000       Uiso       1.00
      H896          H  0.8095000  0.0568300  0.0315300    0.00000       Uiso       1.00
      H897          H  0.1523300  0.4882000  0.0425500    0.00000       Uiso       1.00
      F898          F  0.1024300  0.5256600  0.0333000    0.00000       Uiso       1.00
      H899          H  0.1392700  0.4320400  0.9545800    0.00000       Uiso       1.00
      H900          H  0.0912100  0.4642100  0.9409500    0.00000       Uiso       1.00
      N901          N  0.3094500  0.5829400  0.4883600    0.00000       Uiso       1.00
      C902          C  0.3212600  0.5613300  0.5083100    0.00000       Uiso       1.00
      C903          C  0.2804800  0.6030100  0.4945200    0.00000       Uiso       1.00
      B904          B  0.4370000  0.4842600  0.4743200    0.00000       Uiso       1.00
      O905          O  0.5059200  0.0543600  0.4558400    0.00000       Uiso       1.00
      C906          C  0.0357500  0.7253100  0.1248200    0.00000       Uiso       1.00
      H907          H  0.0577300  0.7290100  0.1093400    0.00000       Uiso       1.00
      H908          H  0.0402400  0.7032500  0.1399400    0.00000       Uiso       1.00
      H909          H  0.5034800  0.7715500  0.8152300    0.00000       Uiso       1.00
      C910          C  0.6495000  0.9577700  0.4996300    0.00000       Uiso       1.00
      C911          C  0.5939100  0.9951100  0.4838200    0.00000       Uiso       1.00
      C912          C  0.6390700  0.9828900  0.5203300    0.00000       Uiso       1.00
      C913          C  0.6115900  0.0015500  0.5125600    0.00000       Uiso       1.00
      C914          C  0.6318400  0.9513400  0.4709900    0.00000       Uiso       1.00
      C915          C  0.6042700  0.9697800  0.4632300    0.00000       Uiso       1.00
      H916          H  0.3095000  0.5568300  0.5315300    0.00000       Uiso       1.00
      H917          H  0.6523300  0.9882000  0.5425500    0.00000       Uiso       1.00
      F918          F  0.6024300  0.0256600  0.5333000    0.00000       Uiso       1.00
      H919          H  0.6392700  0.9320400  0.4545800    0.00000       Uiso       1.00
      H920          H  0.5912100  0.9642100  0.4409500    0.00000       Uiso       1.00
      N921          N  0.3094500  0.4170600  0.0116400    0.00000       Uiso       1.00
      C922          C  0.3212600  0.4386700  0.9916900    0.00000       Uiso       1.00
      C923          C  0.2804800  0.3969900  0.0054800    0.00000       Uiso       1.00
      B924          B  0.4370000  0.5157400  0.0256800    0.00000       Uiso       1.00
      O925          O  0.5059200  0.9456400  0.0441600    0.00000       Uiso       1.00
      C926          C  0.0357500  0.2746900  0.3751800    0.00000       Uiso       1.00
      H927          H  0.0577300  0.2709900  0.3906600    0.00000       Uiso       1.00
      H928          H  0.0402400  0.2967500  0.3600600    0.00000       Uiso       1.00
      H929          H  0.5034800  0.2284500  0.6847700    0.00000       Uiso       1.00
      C930          C  0.6495000  0.0422300  0.0003700    0.00000       Uiso       1.00
      C931          C  0.5939100  0.0048900  0.0161800    0.00000       Uiso       1.00
      C932          C  0.6390700  0.0171100  0.9796700    0.00000       Uiso       1.00
      C933          C  0.6115900  0.9984500  0.9874399    0.00000       Uiso       1.00
      C934          C  0.6318400  0.0486600  0.0290100    0.00000       Uiso       1.00
      C935          C  0.6042700  0.0302200  0.0367700    0.00000       Uiso       1.00
      H936          H  0.3095000  0.4431700  0.9684700    0.00000       Uiso       1.00
      H937          H  0.6523300  0.0118000  0.9574500    0.00000       Uiso       1.00
      F938          F  0.6024300  0.9743401  0.9667000    0.00000       Uiso       1.00
      H939          H  0.6392700  0.0679600  0.0454200    0.00000       Uiso       1.00
      H940          H  0.5912100  0.0357900  0.0590500    0.00000       Uiso       1.00
      N941          N  0.8094499  0.9170600  0.5116400    0.00000       Uiso       1.00
      C942          C  0.8212600  0.9386700  0.4916900    0.00000       Uiso       1.00
      C943          C  0.7804800  0.8969900  0.5054800    0.00000       Uiso       1.00
      B944          B  0.9370000  0.0157400  0.5256800    0.00000       Uiso       1.00
      O945          O  0.0059200  0.4456400  0.5441600    0.00000       Uiso       1.00
      C946          C  0.5357500  0.7746900  0.8751800    0.00000       Uiso       1.00
      H947          H  0.5577300  0.7709900  0.8906600    0.00000       Uiso       1.00
      H948          H  0.5402400  0.7967500  0.8600600    0.00000       Uiso       1.00
      H949          H  0.0034800  0.7284500  0.1847700    0.00000       Uiso       1.00
      C950          C  0.1495000  0.5422300  0.5003700    0.00000       Uiso       1.00
      C951          C  0.0939100  0.5048900  0.5161800    0.00000       Uiso       1.00
      C952          C  0.1390700  0.5171100  0.4796700    0.00000       Uiso       1.00
      C953          C  0.1115900  0.4984500  0.4874400    0.00000       Uiso       1.00
      C954          C  0.1318400  0.5486600  0.5290100    0.00000       Uiso       1.00
      C955          C  0.1042700  0.5302200  0.5367700    0.00000       Uiso       1.00
      H956          H  0.8095000  0.9431700  0.4684700    0.00000       Uiso       1.00
      H957          H  0.1523300  0.5118000  0.4574500    0.00000       Uiso       1.00
      F958          F  0.1024300  0.4743400  0.4667000    0.00000       Uiso       1.00
      H959          H  0.1392700  0.5679600  0.5454200    0.00000       Uiso       1.00
      H960          H  0.0912100  0.5357900  0.5590500    0.00000       Uiso       1.00
      C961          C  0.2500000  0.6687000  0.5000000    0.00000       Uiso       1.00
      C962          C  0.2500000  0.3313000  0.0000000    0.00000       Uiso       1.00
      C963          C  0.7500000  0.1687000  0.0000000    0.00000       Uiso       1.00
      C964          C  0.7500000  0.8313000  0.5000000    0.00000       Uiso       1.00
      C965          C  0.5000000  0.2500000  0.6687000    0.00000       Uiso       1.00
      C966          C  0.0000000  0.2500000  0.3313000    0.00000       Uiso       1.00
      C967          C  0.0000000  0.7500000  0.1687000    0.00000       Uiso       1.00
      C968          C  0.5000000  0.7500000  0.8313000    0.00000       Uiso       1.00
      C969          C  0.6687000  0.5000000  0.2500000    0.00000       Uiso       1.00
      C970          C  0.3313000  0.0000000  0.2500000    0.00000       Uiso       1.00
      C971          C  0.1687000  0.0000000  0.7500000    0.00000       Uiso       1.00
      C972          C  0.8313000  0.5000000  0.7500000    0.00000       Uiso       1.00
      C973          C  0.9187000  0.5000000  0.7500000    0.00000       Uiso       1.00
      C974          C  0.5813000  0.5000000  0.2500000    0.00000       Uiso       1.00
      C975          C  0.4187000  0.0000000  0.2500000    0.00000       Uiso       1.00
      C976          C  0.0813000  0.0000000  0.7500000    0.00000       Uiso       1.00
      C977          C  0.5000000  0.7500000  0.9187000    0.00000       Uiso       1.00
      C978          C  0.5000000  0.2500000  0.5813000    0.00000       Uiso       1.00
      C979          C  0.0000000  0.2500000  0.4187000    0.00000       Uiso       1.00
      C980          C  0.0000000  0.7500000  0.0813000    0.00000       Uiso       1.00
      C981          C  0.7500000  0.9187000  0.5000000    0.00000       Uiso       1.00
      C982          C  0.2500000  0.5813000  0.5000000    0.00000       Uiso       1.00
      C983          C  0.2500000  0.4187000  0.0000000    0.00000       Uiso       1.00
      C984          C  0.7500000  0.0813000  0.0000000    0.00000       Uiso       1.00
