data_DmaTph-23
_audit_creation_date              0000-00-00
_audit_creation_method            'LanYouShi'
_symmetry_space_group_name_H-M    'P1'
_cell_length_a                    6.7262998
_cell_length_b                    40.0275993
_cell_length_c                    32.5903015
_cell_angle_alpha                 90.0000000
_cell_angle_beta                  90.0000000
_cell_angle_gamma                 90.0000000
loop_
_atom_site_label
_atom_site_type_symbol
_atom_site_fract_x
_atom_site_fract_y
_atom_site_fract_z
_atom_site_U_iso_or_equiv
_atom_site_adp_type
_atom_site_occupancy
        C1          C  0.4999980  0.7467020  0.0174600    0.00000       Uiso       1.00
        C2          C  0.4999980  0.2375460  0.6027990    0.00000       Uiso       1.00
        C3          C  0.4999980  0.2467020  0.5174610    0.00000       Uiso       1.00
        C4          C  0.4999980  0.7375460  0.1027980    0.00000       Uiso       1.00
        C5          C  0.4999980  0.2532980  0.0174600    0.00000       Uiso       1.00
        C6          C  0.4999980  0.7624530  0.6027990    0.00000       Uiso       1.00
        C7          C  0.4999980  0.7532970  0.5174610    0.00000       Uiso       1.00
        C8          C  0.4999980  0.2624540  0.1027980    0.00000       Uiso       1.00
        C9          C  0.4999980  0.7082700  0.0765080    0.00000       Uiso       1.00
       C10          C  0.4999980  0.2740190  0.5433150    0.00000       Uiso       1.00
       C11          C  0.4999980  0.2082710  0.5765090    0.00000       Uiso       1.00
       C12          C  0.4999980  0.7740180  0.0433140    0.00000       Uiso       1.00
       C13          C  0.4999980  0.2917290  0.0765080    0.00000       Uiso       1.00
       C14          C  0.4999980  0.7259810  0.5433150    0.00000       Uiso       1.00
       C15          C  0.4999980  0.7917280  0.5765090    0.00000       Uiso       1.00
       C16          C  0.4999980  0.2259810  0.0433140    0.00000       Uiso       1.00
       C17          C  0.4999980  0.7996510  0.1127870    0.00000       Uiso       1.00
       C18          C  0.4999980  0.1890100  0.4970570    0.00000       Uiso       1.00
       C19          C  0.4999980  0.2996510  0.6127880    0.00000       Uiso       1.00
       C20          C  0.4999980  0.6890100  0.9970570    0.00000       Uiso       1.00
       C21          C  0.4999980  0.2003480  0.1127870    0.00000       Uiso       1.00
       C22          C  0.4999980  0.8109890  0.4970570    0.00000       Uiso       1.00
       C23          C  0.4999980  0.7003480  0.6127880    0.00000       Uiso       1.00
       C24          C  0.4999980  0.3109890  0.9970570    0.00000       Uiso       1.00
       C25          C  0.4999980  0.7135260  0.0321470    0.00000       Uiso       1.00
       C26          C  0.4999980  0.2698500  0.5856160    0.00000       Uiso       1.00
       C27          C  0.4999980  0.2135260  0.5321470    0.00000       Uiso       1.00
       C28          C  0.4999980  0.7698500  0.0856150    0.00000       Uiso       1.00
       C29          C  0.4999980  0.2864730  0.0321470    0.00000       Uiso       1.00
       C30          C  0.4999980  0.7301490  0.5856160    0.00000       Uiso       1.00
       C31          C  0.4999980  0.7864730  0.5321470    0.00000       Uiso       1.00
       C32          C  0.4999980  0.2301490  0.0856150    0.00000       Uiso       1.00
       N33          N  0.4999980  0.6569260  0.0005030    0.00000       Uiso       1.00
       N34          N  0.4999980  0.3297810  0.5979090    0.00000       Uiso       1.00
       N35          N  0.4999980  0.1569270  0.5005040    0.00000       Uiso       1.00
       N36          N  0.4999980  0.8297810  0.0979080    0.00000       Uiso       1.00
       N37          N  0.4999980  0.3430730  0.0005030    0.00000       Uiso       1.00
       N38          N  0.4999980  0.6702180  0.5979090    0.00000       Uiso       1.00
       N39          N  0.4999980  0.8430730  0.5005040    0.00000       Uiso       1.00
       N40          N  0.4999980  0.1702190  0.0979080    0.00000       Uiso       1.00
       N41          N  0.4999980  0.0573980  0.2909170    0.00000       Uiso       1.00
       N42          N  0.4999980  0.5573980  0.7909180    0.00000       Uiso       1.00
       N43          N  0.4999980  0.9426010  0.2909170    0.00000       Uiso       1.00
       N44          N  0.4999980  0.4426010  0.7909180    0.00000       Uiso       1.00
       H45          H  0.4999980  0.0334400  0.2908790    0.00000       Uiso       1.00
       H46          H  0.4999980  0.5334400  0.7908800    0.00000       Uiso       1.00
       H47          H  0.4999980  0.9665591  0.2908790    0.00000       Uiso       1.00
       H48          H  0.4999980  0.4665590  0.7908800    0.00000       Uiso       1.00
       C49          C  0.4999980  0.9243351  0.3253620    0.00000       Uiso       1.00
       C50          C  0.4999980  0.0756490  0.2564870    0.00000       Uiso       1.00
       C51          C  0.4999980  0.4243350  0.8253620    0.00000       Uiso       1.00
       C52          C  0.4999980  0.5756490  0.7564870    0.00000       Uiso       1.00
       C53          C  0.4999980  0.0756640  0.3253620    0.00000       Uiso       1.00
       C54          C  0.4999980  0.9243500  0.2564870    0.00000       Uiso       1.00
       C55          C  0.4999980  0.5756640  0.8253620    0.00000       Uiso       1.00
       C56          C  0.4999980  0.4243500  0.7564870    0.00000       Uiso       1.00
       C57          C  0.4999980  0.8912260  0.3125100    0.00000       Uiso       1.00
       C58          C  0.4999980  0.1087710  0.2693920    0.00000       Uiso       1.00
       C59          C  0.4999980  0.3912270  0.8125100    0.00000       Uiso       1.00
       C60          C  0.4999980  0.6087710  0.7693930    0.00000       Uiso       1.00
       C61          C  0.4999980  0.1087730  0.3125100    0.00000       Uiso       1.00
       C62          C  0.4999980  0.8912280  0.2693920    0.00000       Uiso       1.00
       C63          C  0.4999980  0.6087730  0.8125100    0.00000       Uiso       1.00
       C64          C  0.4999980  0.3912280  0.7693930    0.00000       Uiso       1.00
       H65          H  0.4999980  0.8694100  0.3320800    0.00000       Uiso       1.00
       H66          H  0.4999980  0.1306110  0.2498610    0.00000       Uiso       1.00
       H67          H  0.4999980  0.3694100  0.8320810    0.00000       Uiso       1.00
       H68          H  0.4999980  0.6306110  0.7498620    0.00000       Uiso       1.00
       H69          H  0.4999980  0.1305890  0.3320800    0.00000       Uiso       1.00
       H70          H  0.4999980  0.8693880  0.2498610    0.00000       Uiso       1.00
       H71          H  0.4999980  0.6305890  0.8320810    0.00000       Uiso       1.00
       H72          H  0.4999980  0.3693880  0.7498620    0.00000       Uiso       1.00
       N73          N  0.4999980  0.5000000  0.7224610    0.00000       Uiso       1.00
       N74          N  0.4999980  0.5000000  0.8592300    0.00000       Uiso       1.00
       N75          N  0.4999980  0.0000000  0.2224610    0.00000       Uiso       1.00
       N76          N  0.4999980  0.0000000  0.3592290    0.00000       Uiso       1.00
       C77          C  0.4999980  0.5294120  0.6983620    0.00000       Uiso       1.00
       C78          C  0.4999980  0.4706060  0.8833410    0.00000       Uiso       1.00
       C79          C  0.4999980  0.0294120  0.1983620    0.00000       Uiso       1.00
       C80          C  0.4999980  0.9706051  0.3833400    0.00000       Uiso       1.00
       C81          C  0.4999980  0.4705880  0.6983620    0.00000       Uiso       1.00
       C82          C  0.4999980  0.5293930  0.8833410    0.00000       Uiso       1.00
       C83          C  0.4999980  0.9705870  0.1983620    0.00000       Uiso       1.00
       C84          C  0.4999980  0.0293940  0.3833400    0.00000       Uiso       1.00
       C85          C  0.4999980  0.5168730  0.6557850    0.00000       Uiso       1.00
       C86          C  0.4999980  0.4831430  0.9259240    0.00000       Uiso       1.00
       C87          C  0.4999980  0.0168730  0.1557850    0.00000       Uiso       1.00
       C88          C  0.4999980  0.9831430  0.4259240    0.00000       Uiso       1.00
       C89          C  0.4999980  0.4831270  0.6557850    0.00000       Uiso       1.00
       C90          C  0.4999980  0.5168560  0.9259240    0.00000       Uiso       1.00
       C91          C  0.4999980  0.9831260  0.1557850    0.00000       Uiso       1.00
       C92          C  0.4999980  0.0168570  0.4259240    0.00000       Uiso       1.00
       H93          H  0.4999980  0.5321860  0.6284380    0.00000       Uiso       1.00
       H94          H  0.4999980  0.4678470  0.9532860    0.00000       Uiso       1.00
       H95          H  0.4999980  0.0321870  0.1284370    0.00000       Uiso       1.00
       H96          H  0.4999980  0.9678470  0.4532860    0.00000       Uiso       1.00
       H97          H  0.4999980  0.4678130  0.6284380    0.00000       Uiso       1.00
       H98          H  0.4999980  0.5321520  0.9532860    0.00000       Uiso       1.00
       H99          H  0.4999980  0.9678119  0.1284370    0.00000       Uiso       1.00
      H100          H  0.4999980  0.0321520  0.4532860    0.00000       Uiso       1.00
      C101          C  0.4999980  0.9376440  0.3698130    0.00000       Uiso       1.00
      C102          C  0.4999980  0.0623530  0.2119820    0.00000       Uiso       1.00
      C103          C  0.4999980  0.4376440  0.8698140    0.00000       Uiso       1.00
      C104          C  0.4999980  0.5623530  0.7119820    0.00000       Uiso       1.00
      C105          C  0.4999980  0.0623560  0.3698130    0.00000       Uiso       1.00
      C106          C  0.4999980  0.9376459  0.2119820    0.00000       Uiso       1.00
      C107          C  0.4999980  0.5623550  0.8698140    0.00000       Uiso       1.00
      C108          C  0.4999980  0.4376470  0.7119820    0.00000       Uiso       1.00
      C109          C  0.4999980  0.9117609  0.4019670    0.00000       Uiso       1.00
      C110          C  0.4999980  0.0885550  0.1802330    0.00000       Uiso       1.00
      C111          C  0.4999980  0.4117620  0.9019680    0.00000       Uiso       1.00
      C112          C  0.4999980  0.5885540  0.6802330    0.00000       Uiso       1.00
      C113          C  0.4999980  0.0882380  0.4019670    0.00000       Uiso       1.00
      C114          C  0.4999980  0.9114450  0.1802330    0.00000       Uiso       1.00
      C115          C  0.4999980  0.5882380  0.9019680    0.00000       Uiso       1.00
      C116          C  0.4999980  0.4114450  0.6802330    0.00000       Uiso       1.00
      C117          C  0.6802590  0.6017280  0.6659510    0.00000       Uiso       1.00
      C118          C  0.6802701  0.3998740  0.9178690    0.00000       Uiso       1.00
      C119          C  0.6802590  0.1017280  0.1659500    0.00000       Uiso       1.00
      C120          C  0.6802701  0.8998740  0.4178680    0.00000       Uiso       1.00
      C121          C  0.3197380  0.3982710  0.6659510    0.00000       Uiso       1.00
      C122          C  0.3197260  0.6001250  0.9178690    0.00000       Uiso       1.00
      C123          C  0.3197380  0.8982710  0.1659500    0.00000       Uiso       1.00
      C124          C  0.3197260  0.1001250  0.4178680    0.00000       Uiso       1.00
      C125          C  0.6802590  0.3982710  0.6659510    0.00000       Uiso       1.00
      C126          C  0.6802701  0.6001250  0.9178690    0.00000       Uiso       1.00
      C127          C  0.6802590  0.8982710  0.1659500    0.00000       Uiso       1.00
      C128          C  0.6802701  0.1001250  0.4178680    0.00000       Uiso       1.00
      C129          C  0.3197380  0.6017280  0.6659510    0.00000       Uiso       1.00
      C130          C  0.3197260  0.3998740  0.9178690    0.00000       Uiso       1.00
      C131          C  0.3197380  0.1017280  0.1659500    0.00000       Uiso       1.00
      C132          C  0.3197260  0.8998740  0.4178680    0.00000       Uiso       1.00
      H133          H  0.8199199  0.9090770  0.4058610    0.00000       Uiso       1.00
      H134          H  0.8198880  0.0918110  0.1770900    0.00000       Uiso       1.00
      H135          H  0.8199199  0.4090780  0.9058620    0.00000       Uiso       1.00
      H136          H  0.8198880  0.5918110  0.6770910    0.00000       Uiso       1.00
      H137          H  0.1800770  0.0909220  0.4058610    0.00000       Uiso       1.00
      H138          H  0.1801090  0.9081880  0.1770900    0.00000       Uiso       1.00
      H139          H  0.1800770  0.5909220  0.9058620    0.00000       Uiso       1.00
      H140          H  0.1801090  0.4081890  0.6770910    0.00000       Uiso       1.00
      H141          H  0.8199199  0.0909220  0.4058610    0.00000       Uiso       1.00
      H142          H  0.8198880  0.9081880  0.1770900    0.00000       Uiso       1.00
      H143          H  0.8199199  0.5909220  0.9058620    0.00000       Uiso       1.00
      H144          H  0.8198880  0.4081890  0.6770910    0.00000       Uiso       1.00
      H145          H  0.1800770  0.9090770  0.4058610    0.00000       Uiso       1.00
      H146          H  0.1801090  0.0918110  0.1770900    0.00000       Uiso       1.00
      H147          H  0.1800770  0.4090780  0.9058620    0.00000       Uiso       1.00
      H148          H  0.1801090  0.5918110  0.6770910    0.00000       Uiso       1.00
      C149          C  0.6798910  0.8766081  0.4499200    0.00000       Uiso       1.00
      C150          C  0.6799370  0.1282450  0.1379640    0.00000       Uiso       1.00
      C151          C  0.6798910  0.3766090  0.9499210    0.00000       Uiso       1.00
      C152          C  0.6799370  0.6282440  0.6379640    0.00000       Uiso       1.00
      C153          C  0.3201050  0.1233910  0.4499200    0.00000       Uiso       1.00
      C154          C  0.3200600  0.8717550  0.1379640    0.00000       Uiso       1.00
      C155          C  0.3201050  0.6233900  0.9499210    0.00000       Uiso       1.00
      C156          C  0.3200600  0.3717550  0.6379640    0.00000       Uiso       1.00
      C157          C  0.6798910  0.1233910  0.4499200    0.00000       Uiso       1.00
      C158          C  0.6799370  0.8717550  0.1379640    0.00000       Uiso       1.00
      C159          C  0.6798910  0.6233900  0.9499210    0.00000       Uiso       1.00
      C160          C  0.6799370  0.3717550  0.6379640    0.00000       Uiso       1.00
      C161          C  0.3201050  0.8766081  0.4499200    0.00000       Uiso       1.00
      C162          C  0.3200600  0.1282450  0.1379640    0.00000       Uiso       1.00
      C163          C  0.3201050  0.3766090  0.9499210    0.00000       Uiso       1.00
      C164          C  0.3200600  0.6282440  0.6379640    0.00000       Uiso       1.00
      H165          H  0.8183540  0.8678089  0.4628060    0.00000       Uiso       1.00
      H166          H  0.8184890  0.1388630  0.1273800    0.00000       Uiso       1.00
      H167          H  0.8183540  0.3678100  0.9628070    0.00000       Uiso       1.00
      H168          H  0.8184890  0.6388630  0.6273800    0.00000       Uiso       1.00
      H169          H  0.1816420  0.1321900  0.4628060    0.00000       Uiso       1.00
      H170          H  0.1815080  0.8611360  0.1273800    0.00000       Uiso       1.00
      H171          H  0.1816420  0.6321890  0.9628070    0.00000       Uiso       1.00
      H172          H  0.1815080  0.3611360  0.6273800    0.00000       Uiso       1.00
      H173          H  0.8183540  0.1321900  0.4628060    0.00000       Uiso       1.00
      H174          H  0.8184890  0.8611360  0.1273800    0.00000       Uiso       1.00
      H175          H  0.8183540  0.6321890  0.9628070    0.00000       Uiso       1.00
      H176          H  0.8184890  0.3611360  0.6273800    0.00000       Uiso       1.00
      H177          H  0.1816420  0.8678089  0.4628060    0.00000       Uiso       1.00
      H178          H  0.1815080  0.1388630  0.1273800    0.00000       Uiso       1.00
      H179          H  0.1816420  0.3678100  0.9628070    0.00000       Uiso       1.00
      H180          H  0.1815080  0.6388630  0.6273800    0.00000       Uiso       1.00
      C181          C  0.4999980  0.8650140  0.4659780    0.00000       Uiso       1.00
      C182          C  0.4999980  0.1417320  0.1242730    0.00000       Uiso       1.00
      C183          C  0.4999980  0.3650140  0.9659780    0.00000       Uiso       1.00
      C184          C  0.4999980  0.6417320  0.6242730    0.00000       Uiso       1.00
      C185          C  0.4999980  0.1349850  0.4659780    0.00000       Uiso       1.00
      C186          C  0.4999980  0.8582669  0.1242730    0.00000       Uiso       1.00
      C187          C  0.4999980  0.6349850  0.9659780    0.00000       Uiso       1.00
      C188          C  0.4999980  0.3582670  0.6242730    0.00000       Uiso       1.00
      H189          H  0.6385090  0.8601760  0.5631510    0.00000       Uiso       1.00
      H190          H  0.6358930  0.8081900  0.6629470    0.00000       Uiso       1.00
      H191          H  0.6385090  0.3601760  0.0631500    0.00000       Uiso       1.00
      H192          H  0.6358930  0.3081900  0.1629460    0.00000       Uiso       1.00
      H193          H  0.3614870  0.1398230  0.5631510    0.00000       Uiso       1.00
      H194          H  0.3641040  0.1918100  0.6629470    0.00000       Uiso       1.00
      H195          H  0.3614870  0.6398230  0.0631500    0.00000       Uiso       1.00
      H196          H  0.3641040  0.6918090  0.1629460    0.00000       Uiso       1.00
      H197          H  0.6385090  0.1398230  0.5631510    0.00000       Uiso       1.00
      H198          H  0.6358930  0.1918100  0.6629470    0.00000       Uiso       1.00
      H199          H  0.6385090  0.6398230  0.0631500    0.00000       Uiso       1.00
      H200          H  0.6358930  0.6918090  0.1629460    0.00000       Uiso       1.00
      H201          H  0.3614870  0.8601760  0.5631510    0.00000       Uiso       1.00
      H202          H  0.3641040  0.8081900  0.6629470    0.00000       Uiso       1.00
      H203          H  0.3614870  0.3601760  0.0631500    0.00000       Uiso       1.00
      H204          H  0.3641040  0.3081900  0.1629460    0.00000       Uiso       1.00
      H205          H  0.4999980  0.7520240  0.9848020    0.00000       Uiso       1.00
      O206          O  0.4999980  0.6771020  0.0978810    0.00000       Uiso       1.00
      H207          H  0.4999980  0.7961380  0.1458430    0.00000       Uiso       1.00
      O208          O  0.4999980  0.2371680  0.6467190    0.00000       Uiso       1.00
      H209          H  0.4999980  0.2989110  0.5301030    0.00000       Uiso       1.00
      H210          H  0.4999980  0.1990730  0.4660720    0.00000       Uiso       1.00
      C211          C  0.4999980  0.8555250  0.5808620    0.00000       Uiso       1.00
      H212          H  0.4999980  0.8738760  0.6063490    0.00000       Uiso       1.00
      C213          C  0.4999980  0.7932890  0.6695620    0.00000       Uiso       1.00
      H214          H  0.4999980  0.7873150  0.7027900    0.00000       Uiso       1.00
      H215          H  0.4999980  0.2520240  0.4848010    0.00000       Uiso       1.00
      O216          O  0.4999980  0.1771020  0.5978820    0.00000       Uiso       1.00
      H217          H  0.4999980  0.2961380  0.6458430    0.00000       Uiso       1.00
      O218          O  0.4999980  0.7371680  0.1467180    0.00000       Uiso       1.00
      H219          H  0.4999980  0.7989110  0.0301030    0.00000       Uiso       1.00
      H220          H  0.4999980  0.6990730  0.9660730    0.00000       Uiso       1.00
      C221          C  0.4999980  0.3555250  0.0808610    0.00000       Uiso       1.00
      H222          H  0.4999980  0.3738760  0.1063490    0.00000       Uiso       1.00
      C223          C  0.4999980  0.2932890  0.1695610    0.00000       Uiso       1.00
      H224          H  0.4999980  0.2873150  0.2027900    0.00000       Uiso       1.00
      H225          H  0.4999980  0.2479760  0.9848020    0.00000       Uiso       1.00
      O226          O  0.4999980  0.3228970  0.0978810    0.00000       Uiso       1.00
      H227          H  0.4999980  0.2038620  0.1458430    0.00000       Uiso       1.00
      O228          O  0.4999980  0.7628310  0.6467190    0.00000       Uiso       1.00
      H229          H  0.4999980  0.7010880  0.5301030    0.00000       Uiso       1.00
      H230          H  0.4999980  0.8009260  0.4660720    0.00000       Uiso       1.00
      C231          C  0.4999980  0.1444740  0.5808620    0.00000       Uiso       1.00
      H232          H  0.4999980  0.1261230  0.6063490    0.00000       Uiso       1.00
      C233          C  0.4999980  0.2067100  0.6695620    0.00000       Uiso       1.00
      H234          H  0.4999980  0.2126850  0.7027900    0.00000       Uiso       1.00
      H235          H  0.4999980  0.7479750  0.4848010    0.00000       Uiso       1.00
      O236          O  0.4999980  0.8228970  0.5978820    0.00000       Uiso       1.00
      H237          H  0.4999980  0.7038610  0.6458430    0.00000       Uiso       1.00
      O238          O  0.4999980  0.2628310  0.1467180    0.00000       Uiso       1.00
      H239          H  0.4999980  0.2010890  0.0301030    0.00000       Uiso       1.00
      H240          H  0.4999980  0.3009260  0.9660730    0.00000       Uiso       1.00
      C241          C  0.4999980  0.6444740  0.0808610    0.00000       Uiso       1.00
      H242          H  0.4999980  0.6261230  0.1063490    0.00000       Uiso       1.00
      C243          C  0.4999980  0.7067100  0.1695610    0.00000       Uiso       1.00
      H244          H  0.4999980  0.7126840  0.2027900    0.00000       Uiso       1.00
      H245          H  0.4999980  0.5000000  0.7520300    0.00000       Uiso       1.00
      H246          H  0.4999980  0.5000000  0.8296830    0.00000       Uiso       1.00
      H247          H  0.4999980  0.0000000  0.2520290    0.00000       Uiso       1.00
      H248          H  0.4999980  0.0000000  0.3296820    0.00000       Uiso       1.00
