data_DMTA-TPB1-2
_audit_creation_date              0000-00-00
_audit_creation_method            'LanYouShi'
_symmetry_space_group_name_H-M    'P1'
_cell_length_a                    37.6198997
_cell_length_b                    37.6063004
_cell_length_c                    3.5100000
_cell_angle_alpha                 90.0145035
_cell_angle_beta                  89.9412994
_cell_angle_gamma                 120.0466003
loop_
_atom_site_label
_atom_site_type_symbol
_atom_site_fract_x
_atom_site_fract_y
_atom_site_fract_z
_atom_site_U_iso_or_equiv
_atom_site_adp_type
_atom_site_occupancy
        C1          C  0.4797300  0.5137400 -0.0199800    0.00000       Uiso       1.00
        C2          C  0.4637400  0.4709800 -0.0042900    0.00000       Uiso       1.00
        C3          C  0.4885900  0.4551900  0.1170200    0.00000       Uiso       1.00
        C4          C  0.5301600  0.4816300  0.2018400    0.00000       Uiso       1.00
        C5          C  0.5479300  0.5242300  0.1279200    0.00000       Uiso       1.00
        C6          C  0.5219600  0.5400300  0.0438400    0.00000       Uiso       1.00
        O7          O  0.5903300  0.5524700  0.1724400    0.00000       Uiso       1.00
        C8          C  0.6201500  0.5442100 -0.0055400    0.00000       Uiso       1.00
        O9          O  0.4256800  0.4447100 -0.1706400    0.00000       Uiso       1.00
       C10          C  0.3934200  0.4180900  0.0810500    0.00000       Uiso       1.00
       C11          C  0.5556900  0.4658100  0.3620000    0.00000       Uiso       1.00
       C12          C  0.4515800  0.5299700 -0.0966100    0.00000       Uiso       1.00
       N13          N  0.4623200  0.5681200 -0.0264800    0.00000       Uiso       1.00
       N14          N  0.5453000  0.4271900  0.3429200    0.00000       Uiso       1.00
       C15          C  0.4364900  0.5864000 -0.0588600    0.00000       Uiso       1.00
       C16          C  0.5723800  0.4110000  0.4078900    0.00000       Uiso       1.00
       C17          C  0.5554500  0.3695400  0.5049000    0.00000       Uiso       1.00
       C18          C  0.5797900  0.3509900  0.5123900    0.00000       Uiso       1.00
       C19          C  0.6216000  0.3730400  0.4066300    0.00000       Uiso       1.00
       C20          C  0.6386400  0.4151000  0.3189700    0.00000       Uiso       1.00
       C21          C  0.6145800  0.4339000  0.3245200    0.00000       Uiso       1.00
       C22          C  0.4521800  0.6268800  0.0653000    0.00000       Uiso       1.00
       C23          C  0.4281100  0.6457300  0.0570700    0.00000       Uiso       1.00
       C24          C  0.3875000  0.6247200 -0.0830200    0.00000       Uiso       1.00
       C25          C  0.3721000  0.5841600 -0.2140700    0.00000       Uiso       1.00
       C26          C  0.3960200  0.5651800 -0.2003200    0.00000       Uiso       1.00
       C27          C  0.6464200  0.3518200  0.3647600    0.00000       Uiso       1.00
       C28          C  0.3617000  0.6450400 -0.1042600    0.00000       Uiso       1.00
       C29          C  0.6892500  0.3735800  0.3940500    0.00000       Uiso       1.00
       C30          C  0.3133200  0.6819700 -0.2081800    0.00000       Uiso       1.00
       C31          C  0.4715700  0.9549700 -0.0839800    0.00000       Uiso       1.00
       C32          C  0.5112100  0.9851301 -0.2007500    0.00000       Uiso       1.00
       C33          C  0.5242000  0.0269800 -0.1523700    0.00000       Uiso       1.00
       C34          C  0.4978500  0.0405300 -0.0103000    0.00000       Uiso       1.00
       C35          C  0.4560500  0.0107800  0.0523500    0.00000       Uiso       1.00
       C36          C  0.4437400  0.9669700  0.0371500    0.00000       Uiso       1.00
       O37          O  0.4254900  0.0200500  0.1538600    0.00000       Uiso       1.00
       C38          C  0.4221200  0.0499000 -0.0710200    0.00000       Uiso       1.00
       O39          O  0.5349400  0.9745300 -0.4317500    0.00000       Uiso       1.00
       C40          C  0.5618700  0.9642600 -0.2395900    0.00000       Uiso       1.00
       C41          C  0.5143800  0.0849700  0.0732000    0.00000       Uiso       1.00
       C42          C  0.4597500  0.9112600 -0.0705500    0.00000       Uiso       1.00
       N43          N  0.4223500  0.8828100 -0.1441800    0.00000       Uiso       1.00
       N44          N  0.5529000  0.1111900  0.0140000    0.00000       Uiso       1.00
       C45          C  0.4076600  0.8394600 -0.1396400    0.00000       Uiso       1.00
       C46          C  0.5744800  0.1549500  0.0706800    0.00000       Uiso       1.00
       C47          C  0.6148000  0.1768100 -0.0561900    0.00000       Uiso       1.00
       C48          C  0.6375000  0.2193700 -0.0214700    0.00000       Uiso       1.00
       C49          C  0.6226000  0.2421600  0.1638100    0.00000       Uiso       1.00
       C50          C  0.5813200  0.2194900  0.2952200    0.00000       Uiso       1.00
       C51          C  0.5572700  0.1767300  0.2407400    0.00000       Uiso       1.00
       C52          C  0.3670000  0.8129600 -0.0341100    0.00000       Uiso       1.00
       C53          C  0.3509200  0.7705400 -0.0346400    0.00000       Uiso       1.00
       C54          C  0.3745800  0.7531400 -0.1595600    0.00000       Uiso       1.00
       C55          C  0.4156200  0.7801300 -0.2695300    0.00000       Uiso       1.00
       C56          C  0.4321400  0.8228600 -0.2558100    0.00000       Uiso       1.00
       C57          C  0.6488700  0.2885600  0.2239500    0.00000       Uiso       1.00
       C58          C  0.3560400  0.7072300 -0.1693600    0.00000       Uiso       1.00
       C59          C  0.6272400  0.3100400  0.2709400    0.00000       Uiso       1.00
       C60          C  0.3183700  0.6212500 -0.1017000    0.00000       Uiso       1.00
       C61          C  0.0458600  0.5289600 -0.1378500    0.00000       Uiso       1.00
       C62          C  0.0182000  0.5431900 -0.1955200    0.00000       Uiso       1.00
       C63          C  0.9738200  0.5157900 -0.1197800    0.00000       Uiso       1.00
       C64          C  0.9581400  0.4742500 -0.0280600    0.00000       Uiso       1.00
       C65          C  0.9856900  0.4587700 -0.0212600    0.00000       Uiso       1.00
       C66          C  0.0303200  0.4875900 -0.0473400    0.00000       Uiso       1.00
       O67          O  0.9736300  0.4173100  0.0398500    0.00000       Uiso       1.00
       C68          C  0.9417600  0.3874400 -0.1969200    0.00000       Uiso       1.00
       O69          O  0.0309300  0.5799400 -0.3913200    0.00000       Uiso       1.00
       C70          C  0.0364900  0.6133200 -0.1597600    0.00000       Uiso       1.00
       C71          C  0.9138100  0.4475300  0.0622400    0.00000       Uiso       1.00
       C72          C  0.0908100  0.5575600 -0.1622500    0.00000       Uiso       1.00
       N73          N  0.1164700  0.5438600 -0.1659100    0.00000       Uiso       1.00
       N74          N  0.8884300  0.4616100  0.0795600    0.00000       Uiso       1.00
       C75          C  0.1606200  0.5685300 -0.1653200    0.00000       Uiso       1.00
       C76          C  0.8452400  0.4367300  0.1664500    0.00000       Uiso       1.00
       C77          C  0.8177600  0.4496100  0.0510600    0.00000       Uiso       1.00
       C78          C  0.7751500  0.4235900  0.0958300    0.00000       Uiso       1.00
       C79          C  0.7590600  0.3844200  0.2660300    0.00000       Uiso       1.00
       C80          C  0.7874000  0.3747500  0.4213200    0.00000       Uiso       1.00
       C81          C  0.8294700  0.3992400  0.3602900    0.00000       Uiso       1.00
       C82          C  0.1837500  0.5505200 -0.2788400    0.00000       Uiso       1.00
       C83          C  0.2267800  0.5731400 -0.2779300    0.00000       Uiso       1.00
       C84          C  0.2477900  0.6143000 -0.1539700    0.00000       Uiso       1.00
       C85          C  0.2242300  0.6317600 -0.0283700    0.00000       Uiso       1.00
       C86          C  0.1813600  0.6094300 -0.0370000    0.00000       Uiso       1.00
       C87          C  0.7133100  0.3557400  0.3031000    0.00000       Uiso       1.00
       C88          C  0.2938000  0.6393100 -0.1564600    0.00000       Uiso       1.00
       C89          C  0.6934500  0.3123800  0.2250400    0.00000       Uiso       1.00
       C90          C  0.3800200  0.6882600 -0.1285200    0.00000       Uiso       1.00
       O91          O  0.7176201  2.2970700  0.0617600    0.00000       Uiso       1.00
       C92          C  0.7280900  2.2719700  0.2912800    0.00000       Uiso       1.00
       C93          C  0.7555400  2.2572000  0.0995600    0.00000       Uiso       1.00
       C94          C  0.7988700  2.2917800 -0.0128700    0.00000       Uiso       1.00
       C95          C  0.8276200  2.2754500  0.0698200    0.00000       Uiso       1.00
       C96          C  0.7998200  2.2313700  0.1929200    0.00000       Uiso       1.00
       N97          N  0.7619900  2.2284701  0.3311200    0.00000       Uiso       1.00
       H98          H  0.4755300  0.4222400  0.1383000    0.00000       Uiso       1.00
       H99          H  0.5351700  0.5729400  0.0170000    0.00000       Uiso       1.00
      H100          H  0.6289300  0.5601000 -0.2775200    0.00000       Uiso       1.00
      H101          H  0.6115500  0.5105800 -0.0274600    0.00000       Uiso       1.00
      H102          H  0.6492900  0.5596100  0.1562400    0.00000       Uiso       1.00
      H103          H  0.4024800  0.3989700  0.2520700    0.00000       Uiso       1.00
      H104          H  0.3658600  0.3974300 -0.0903600    0.00000       Uiso       1.00
      H105          H  0.3847900  0.4364700  0.2668600    0.00000       Uiso       1.00
      H106          H  0.5860600  0.4896300  0.4502900    0.00000       Uiso       1.00
      H107          H  0.4204300  0.5081800 -0.1861700    0.00000       Uiso       1.00
      H108          H  0.5230500  0.3513600  0.5706300    0.00000       Uiso       1.00
      H109          H  0.5653900  0.3190500  0.5960400    0.00000       Uiso       1.00
      H110          H  0.6701200  0.4334100  0.2256800    0.00000       Uiso       1.00
      H111          H  0.6287800  0.4657300  0.2400000    0.00000       Uiso       1.00
      H112          H  0.4830400  0.6435300  0.1796900    0.00000       Uiso       1.00
      H113          H  0.4411900  0.6763500  0.1728500    0.00000       Uiso       1.00
      H114          H  0.3418900  0.5671300 -0.3404900    0.00000       Uiso       1.00
      H115          H  0.3827400  0.5343800 -0.3107600    0.00000       Uiso       1.00
      H116          H  0.7045000  0.4055000  0.4768200    0.00000       Uiso       1.00
      H117          H  0.2949600  0.6957100 -0.2805700    0.00000       Uiso       1.00
      H118          H  0.5553100  0.0491000 -0.2363000    0.00000       Uiso       1.00
      H119          H  0.4130500  0.9442700  0.1261400    0.00000       Uiso       1.00
      H120          H  0.3920100  0.0347300 -0.2155900    0.00000       Uiso       1.00
      H121          H  0.4477000  0.0654700 -0.2802600    0.00000       Uiso       1.00
      H122          H  0.4227900  0.0738800  0.1180800    0.00000       Uiso       1.00
      H123          H  0.5811600  0.9885300 -0.0319700    0.00000       Uiso       1.00
      H124          H  0.5828100  0.9623900 -0.4494500    0.00000       Uiso       1.00
      H125          H  0.5445200  0.9332700 -0.1137700    0.00000       Uiso       1.00
      H126          H  0.4940400  0.0952400  0.1803700    0.00000       Uiso       1.00
      H127          H  0.4820200  0.9032700  0.0313600    0.00000       Uiso       1.00
      H128          H  0.6282300  0.1607000 -0.1966600    0.00000       Uiso       1.00
      H129          H  0.6666200  0.2340500 -0.1463700    0.00000       Uiso       1.00
      H130          H  0.5676300  0.2340800  0.4559000    0.00000       Uiso       1.00
      H131          H  0.5261300  0.1609700  0.3462100    0.00000       Uiso       1.00
      H132          H  0.3479300  0.8253800  0.0580100    0.00000       Uiso       1.00
      H133          H  0.3198900  0.7515100  0.0690500    0.00000       Uiso       1.00
      H134          H  0.4347800  0.7684900 -0.3768400    0.00000       Uiso       1.00
      H135          H  0.4633900  0.8427800 -0.3499100    0.00000       Uiso       1.00
      H136          H  0.5947900  0.2944300  0.2126800    0.00000       Uiso       1.00
      H137          H  0.3035500  0.5886300 -0.0484900    0.00000       Uiso       1.00
      H138          H  0.9534800  0.5282600 -0.1476900    0.00000       Uiso       1.00
      H139          H  0.0509100  0.4757000 -0.0017200    0.00000       Uiso       1.00
      H140          H  0.9170600  0.3640300 -0.0157400    0.00000       Uiso       1.00
      H141          H  0.9542600  0.3714100 -0.3658400    0.00000       Uiso       1.00
      H142          H  0.9280600  0.4013900 -0.3836100    0.00000       Uiso       1.00
      H143          H  0.0429200  0.6397200 -0.3454500    0.00000       Uiso       1.00
      H144          H  0.0637800  0.6230300  0.0251200    0.00000       Uiso       1.00
      H145          H  0.0083200  0.6051200  0.0084100    0.00000       Uiso       1.00
      H146          H  0.9024000  0.4150900  0.1049500    0.00000       Uiso       1.00
      H147          H  0.1019200  0.5902300 -0.1713700    0.00000       Uiso       1.00
      H148          H  0.8292100  0.4789200 -0.0910400    0.00000       Uiso       1.00
      H149          H  0.7547400  0.4335700 -0.0141900    0.00000       Uiso       1.00
      H150          H  0.7779800  0.3505800  0.6213500    0.00000       Uiso       1.00
      H151          H  0.8495500  0.3897100  0.4871700    0.00000       Uiso       1.00
      H152          H  0.1684200  0.5189500 -0.3752000    0.00000       Uiso       1.00
      H153          H  0.2433200  0.5584400 -0.3824600    0.00000       Uiso       1.00
      H154          H  0.2386800  0.6625800  0.0859300    0.00000       Uiso       1.00
      H155          H  0.1649100  0.6240700  0.0698100    0.00000       Uiso       1.00
      H156          H  0.4129400  0.7072600 -0.1160000    0.00000       Uiso       1.00
      H157          H  0.7005001  2.2440000  0.3781500    0.00000       Uiso       1.00
      H158          H  0.7438201  2.2893600  0.5308500    0.00000       Uiso       1.00
      H159          H  0.7364500  2.2387900 -0.1341500    0.00000       Uiso       1.00
      H160          H  0.8020300  2.3003399 -0.3073600    0.00000       Uiso       1.00
      H161          H  0.8084200  2.3209200  0.1375500    0.00000       Uiso       1.00
      H162          H  0.8499600  2.2951100  0.2856400    0.00000       Uiso       1.00
      H163          H  0.8470299  2.2764101 -0.1666100    0.00000       Uiso       1.00
      H164          H  0.8150699  2.2223401  0.4070100    0.00000       Uiso       1.00
      H165          H  0.7923900  2.2095599 -0.0428500    0.00000       Uiso       1.00
      H166          H  0.7375200  2.1983399  0.2982200    0.00000       Uiso       1.00
