data_DMTA-TPB1-3
_audit_creation_date              0000-00-00
_audit_creation_method            'LanYouShi'
_symmetry_space_group_name_H-M    'P1'
_cell_length_a                    37.3311005
_cell_length_b                    37.3087006
_cell_length_c                    3.5200000
_cell_angle_alpha                 90.0390015
_cell_angle_beta                  89.9905014
_cell_angle_gamma                 119.9604034
loop_
_atom_site_label
_atom_site_type_symbol
_atom_site_fract_x
_atom_site_fract_y
_atom_site_fract_z
_atom_site_U_iso_or_equiv
_atom_site_adp_type
_atom_site_occupancy
        C1          C  0.4774400  0.5124100  0.0272500    0.00000       Uiso       1.00
        C2          C  0.4650400  0.4698600  0.0044500    0.00000       Uiso       1.00
        C3          C  0.4932300  0.4568500  0.0959100    0.00000       Uiso       1.00
        C4          C  0.5337100  0.4849200  0.2171200    0.00000       Uiso       1.00
        C5          C  0.5462200  0.5275600  0.2350700    0.00000       Uiso       1.00
        C6          C  0.5178100  0.5404600  0.1493200    0.00000       Uiso       1.00
        O7          O  0.5854700  0.5580400  0.3617200    0.00000       Uiso       1.00
        C8          C  0.6201100  0.5642100  0.1385400    0.00000       Uiso       1.00
        O9          O  0.4262200  0.4396600 -0.1336400    0.00000       Uiso       1.00
       C10          C  0.3907200  0.4333400  0.0757600    0.00000       Uiso       1.00
       C11          C  0.5620300  0.4693400  0.3231300    0.00000       Uiso       1.00
       C12          C  0.4494000  0.5280400 -0.0841900    0.00000       Uiso       1.00
       N13          N  0.4573500  0.5648800  0.0135000    0.00000       Uiso       1.00
       N14          N  0.5500400  0.4301100  0.3015400    0.00000       Uiso       1.00
       C15          C  0.4322900  0.5834800 -0.0613900    0.00000       Uiso       1.00
       C16          C  0.5760800  0.4124800  0.3622700    0.00000       Uiso       1.00
       C17          C  0.5579900  0.3712200  0.4781400    0.00000       Uiso       1.00
       C18          C  0.5816600  0.3518300  0.5079000    0.00000       Uiso       1.00
       C19          C  0.6238700  0.3730000  0.4090800    0.00000       Uiso       1.00
       C20          C  0.6419400  0.4146400  0.2937200    0.00000       Uiso       1.00
       C21          C  0.6184200  0.4342300  0.2731600    0.00000       Uiso       1.00
       C22          C  0.4483500  0.6250800  0.0343000    0.00000       Uiso       1.00
       C23          C  0.4250400  0.6446300 -0.0179300    0.00000       Uiso       1.00
       C24          C  0.3849200  0.6230100 -0.1733600    0.00000       Uiso       1.00
       C25          C  0.3689200  0.5810700 -0.2704700    0.00000       Uiso       1.00
       C26          C  0.3919900  0.5613500 -0.2111700    0.00000       Uiso       1.00
       C27          C  0.6481700  0.3510500  0.4006200    0.00000       Uiso       1.00
       C28          C  0.3601500  0.6440000 -0.2418600    0.00000       Uiso       1.00
       C29          C  0.6906300  0.3723500  0.4639600    0.00000       Uiso       1.00
       C30          C  0.3133800  0.6821400 -0.4093300    0.00000       Uiso       1.00
       C31          C  0.4842700  0.9561000 -0.2331900    0.00000       Uiso       1.00
       C32          C  0.5263300  0.9873900 -0.2566700    0.00000       Uiso       1.00
       C33          C  0.5381500  0.0285200 -0.1714100    0.00000       Uiso       1.00
       C34          C  0.5098600  0.0404800 -0.0467800    0.00000       Uiso       1.00
       C35          C  0.4677500  0.0101500 -0.0189600    0.00000       Uiso       1.00
       C36          C  0.4551900  0.9669500 -0.1100000    0.00000       Uiso       1.00
       O37          O  0.4371200  0.0181200  0.1185100    0.00000       Uiso       1.00
       C38          C  0.4307000  0.0474200 -0.0880400    0.00000       Uiso       1.00
       O39          O  0.5575600  0.9799500 -0.3875800    0.00000       Uiso       1.00
       C40          C  0.5651600  0.9520600 -0.1706400    0.00000       Uiso       1.00
       C41          C  0.5251300  0.0841800  0.0598600    0.00000       Uiso       1.00
       C42          C  0.4702600  0.9126000 -0.3399700    0.00000       Uiso       1.00
       N43          N  0.4324700  0.8836900 -0.2688900    0.00000       Uiso       1.00
       N44          N  0.5613000  0.1127200 -0.0529600    0.00000       Uiso       1.00
       C45          C  0.4144000  0.8399500 -0.3302600    0.00000       Uiso       1.00
       C46          C  0.5812700  0.1564300  0.0177500    0.00000       Uiso       1.00
       C47          C  0.6213800  0.1808200 -0.1187500    0.00000       Uiso       1.00
       C48          C  0.6425300  0.2235900 -0.0658500    0.00000       Uiso       1.00
       C49          C  0.6262300  0.2431500  0.1538200    0.00000       Uiso       1.00
       C50          C  0.5847000  0.2185400  0.2772400    0.00000       Uiso       1.00
       C51          C  0.5621900  0.1759000  0.2032400    0.00000       Uiso       1.00
       C52          C  0.3731700  0.8147600 -0.2246600    0.00000       Uiso       1.00
       C53          C  0.3544300  0.7718400 -0.2451000    0.00000       Uiso       1.00
       C54          C  0.3763200  0.7527300 -0.3806800    0.00000       Uiso       1.00
       C55          C  0.4175700  0.7781800 -0.4984700    0.00000       Uiso       1.00
       C56          C  0.4366000  0.8213500 -0.4705500    0.00000       Uiso       1.00
       C57          C  0.6515800  0.2883800  0.2584700    0.00000       Uiso       1.00
       C58          C  0.3564500  0.7066700 -0.3737400    0.00000       Uiso       1.00
       C59          C  0.6294500  0.3096700  0.2921000    0.00000       Uiso       1.00
       C60          C  0.3166100  0.6210300 -0.2408400    0.00000       Uiso       1.00
       C61          C  0.0454300  0.5320800 -0.1697700    0.00000       Uiso       1.00
       C62          C  0.0174500  0.5472000 -0.1621100    0.00000       Uiso       1.00
       C63          C  0.9735800  0.5188200 -0.0682700    0.00000       Uiso       1.00
       C64          C  0.9590300  0.4772600  0.0236900    0.00000       Uiso       1.00
       C65          C  0.9868300  0.4619500  0.0074000    0.00000       Uiso       1.00
       C66          C  0.0306500  0.4903900 -0.0819700    0.00000       Uiso       1.00
       O67          O  0.9764000  0.4217800  0.1196400    0.00000       Uiso       1.00
       C68          C  0.9464700  0.3882900 -0.1055000    0.00000       Uiso       1.00
       O69          O  0.0279500  0.5872500 -0.2780500    0.00000       Uiso       1.00
       C70          C  0.0581600  0.6209400 -0.0566100    0.00000       Uiso       1.00
       C71          C  0.9152700  0.4504400  0.1371600    0.00000       Uiso       1.00
       C72          C  0.0898400  0.5590100 -0.2625200    0.00000       Uiso       1.00
       N73          N  0.1155300  0.5451500 -0.2356400    0.00000       Uiso       1.00
       N74          N  0.8897100  0.4644500  0.1665500    0.00000       Uiso       1.00
       C75          C  0.1595500  0.5698100 -0.2794900    0.00000       Uiso       1.00
       C76          C  0.8465900  0.4390500  0.2603200    0.00000       Uiso       1.00
       C77          C  0.8183100  0.4509900  0.1397000    0.00000       Uiso       1.00
       C78          C  0.7756500  0.4237000  0.1770800    0.00000       Uiso       1.00
       C79          C  0.7605900  0.3844800  0.3478300    0.00000       Uiso       1.00
       C80          C  0.7892600  0.3760000  0.5100400    0.00000       Uiso       1.00
       C81          C  0.8315700  0.4015000  0.4561200    0.00000       Uiso       1.00
       C82          C  0.1818600  0.5506500 -0.3917100    0.00000       Uiso       1.00
       C83          C  0.2250300  0.5732500 -0.4156600    0.00000       Uiso       1.00
       C84          C  0.2468500  0.6154900 -0.3176400    0.00000       Uiso       1.00
       C85          C  0.2241900  0.6344400 -0.1995200    0.00000       Uiso       1.00
       C86          C  0.1810800  0.6119500 -0.1822100    0.00000       Uiso       1.00
       C87          C  0.7153100  0.3545200  0.3867300    0.00000       Uiso       1.00
       C88          C  0.2929200  0.6396700 -0.3285600    0.00000       Uiso       1.00
       C89          C  0.6959800  0.3106500  0.3119800    0.00000       Uiso       1.00
       C90          C  0.3796600  0.6870600 -0.3036700    0.00000       Uiso       1.00
       O91          O  0.7193000  2.2927799  0.1683400    0.00000       Uiso       1.00
       C92          C  0.7253999  2.2308199  0.3668600    0.00000       Uiso       1.00
       C93          C  0.7430800  2.2779601  0.3793900    0.00000       Uiso       1.00
       C94          C  0.7883100  2.2961199  0.2549600    0.00000       Uiso       1.00
       C95          C  0.7935900  2.2597201  0.1299200    0.00000       Uiso       1.00
       N96          N  0.7567500  2.2209799  0.2363300    0.00000       Uiso       1.00
       C97          C  0.8336700  1.2615200  0.2437700    0.00000       Uiso       1.00
       O98          O  0.8386300  1.2273999  0.1694900    0.00000       Uiso       1.00
       O99          O  0.8619200  1.2926700  0.3879600    0.00000       Uiso       1.00
      H100          H  0.4830100  0.4241900  0.0718400    0.00000       Uiso       1.00
      H101          H  0.5279600  0.5731200  0.1707900    0.00000       Uiso       1.00
      H102          H  0.6325000  0.5938000 -0.0189200    0.00000       Uiso       1.00
      H103          H  0.6123100  0.5386500 -0.0652300    0.00000       Uiso       1.00
      H104          H  0.6448100  0.5663800  0.3279600    0.00000       Uiso       1.00
      H105          H  0.3768500  0.4029100  0.2202500    0.00000       Uiso       1.00
      H106          H  0.3674400  0.4330200 -0.1216400    0.00000       Uiso       1.00
      H107          H  0.3979200  0.4576800  0.2895800    0.00000       Uiso       1.00
      H108          H  0.5930000  0.4907400  0.4184600    0.00000       Uiso       1.00
      H109          H  0.4220800  0.5081100 -0.2454500    0.00000       Uiso       1.00
      H110          H  0.5253500  0.3539900  0.5456200    0.00000       Uiso       1.00
      H111          H  0.5667700  0.3200900  0.6052700    0.00000       Uiso       1.00
      H112          H  0.6738000  0.4316700  0.2002700    0.00000       Uiso       1.00
      H113          H  0.6329000  0.4656100  0.1679100    0.00000       Uiso       1.00
      H114          H  0.4789500  0.6423000  0.1571800    0.00000       Uiso       1.00
      H115          H  0.4383900  0.6763800  0.0741300    0.00000       Uiso       1.00
      H116          H  0.3388100  0.5633500 -0.4011100    0.00000       Uiso       1.00
      H117          H  0.3779000  0.5290400 -0.2861900    0.00000       Uiso       1.00
      H118          H  0.7052300  0.4044100  0.5511800    0.00000       Uiso       1.00
      H119          H  0.2955500  0.6963800 -0.4950400    0.00000       Uiso       1.00
      H120          H  0.5705900  0.0514200 -0.1958000    0.00000       Uiso       1.00
      H121          H  0.4227800  0.9440100 -0.0861200    0.00000       Uiso       1.00
      H122          H  0.4547100  0.0643400 -0.3058400    0.00000       Uiso       1.00
      H123          H  0.4310200  0.0706600  0.1100100    0.00000       Uiso       1.00
      H124          H  0.3998200  0.0310600 -0.2250200    0.00000       Uiso       1.00
      H125          H  0.5950600  0.9698500 -0.0189300    0.00000       Uiso       1.00
      H126          H  0.5676800  0.9300400 -0.3653700    0.00000       Uiso       1.00
      H127          H  0.5402400  0.9336600  0.0361500    0.00000       Uiso       1.00
      H128          H  0.5060200  0.0919900  0.2285200    0.00000       Uiso       1.00
      H129          H  0.4920100  0.9051100 -0.4665200    0.00000       Uiso       1.00
      H130          H  0.6358600  0.1667400 -0.2800600    0.00000       Uiso       1.00
      H131          H  0.6712500  0.2413500 -0.2096200    0.00000       Uiso       1.00
      H132          H  0.5698100  0.2314400  0.4482400    0.00000       Uiso       1.00
      H133          H  0.5307600  0.1586300  0.3054300    0.00000       Uiso       1.00
      H134          H  0.3558200  0.8285800 -0.1134300    0.00000       Uiso       1.00
      H135          H  0.3231800  0.7537500 -0.1392900    0.00000       Uiso       1.00
      H136          H  0.4353200  0.7649400 -0.6117000    0.00000       Uiso       1.00
      H137          H  0.4685100  0.8396000 -0.5569400    0.00000       Uiso       1.00
      H138          H  0.5972400  0.2943600  0.2102200    0.00000       Uiso       1.00
      H139          H  0.3010100  0.5888200 -0.1585000    0.00000       Uiso       1.00
      H140          H  0.9528100  0.5312000 -0.0667500    0.00000       Uiso       1.00
      H141          H  0.0512800  0.4778600 -0.0817900    0.00000       Uiso       1.00
      H142          H  0.9616300  0.3729000 -0.2502400    0.00000       Uiso       1.00
      H143          H  0.9313500  0.3982200 -0.3187300    0.00000       Uiso       1.00
      H144          H  0.9219200  0.3651700  0.0815900    0.00000       Uiso       1.00
      H145          H  0.0819300  0.6443900 -0.2473600    0.00000       Uiso       1.00
      H146          H  0.0739900  0.6112700  0.1513200    0.00000       Uiso       1.00
      H147          H  0.0429500  0.6358400  0.0953000    0.00000       Uiso       1.00
      H148          H  0.9040200  0.4181200  0.1815300    0.00000       Uiso       1.00
      H149          H  0.1011300  0.5906100 -0.3483400    0.00000       Uiso       1.00
      H150          H  0.8291800  0.4802200 -0.0051100    0.00000       Uiso       1.00
      H151          H  0.7546100  0.4328500  0.0614900    0.00000       Uiso       1.00
      H152          H  0.7783700  0.3509400  0.6994300    0.00000       Uiso       1.00
      H153          H  0.8522700  0.3926200  0.5847400    0.00000       Uiso       1.00
      H154          H  0.1656700  0.5181000 -0.4635700    0.00000       Uiso       1.00
      H155          H  0.2411600  0.5576400 -0.5139600    0.00000       Uiso       1.00
      H156          H  0.2397200  0.6664200 -0.1076800    0.00000       Uiso       1.00
      H157          H  0.1647700  0.6270900 -0.0767700    0.00000       Uiso       1.00
      H158          H  0.4129000  0.7055100 -0.2911200    0.00000       Uiso       1.00
      H159          H  0.6973999  2.2139599  0.2005700    0.00000       Uiso       1.00
      H160          H  0.7148501  2.2170000  0.6448000    0.00000       Uiso       1.00
      H161          H  0.7444000  2.2860000  0.6618300    0.00000       Uiso       1.00
      H162          H  0.8103500  2.3134501  0.4822100    0.00000       Uiso       1.00
      H163          H  0.7980500  2.3199999  0.0414600    0.00000       Uiso       1.00
      H164          H  0.7941799  2.2596600 -0.1708800    0.00000       Uiso       1.00
      H165          H  0.7631800  2.2055700  0.4506900    0.00000       Uiso       1.00
      H166          H  0.8666800  1.2320400  0.2515500    0.00000       Uiso       1.00
