data_4PE-2P
_audit_creation_date              0000-00-00
_audit_creation_method            'LanYouShi'
_symmetry_space_group_name_H-M    'P1'
_cell_length_a                    45.8218002
_cell_length_b                    45.8218002
_cell_length_c                    4.6300001
_cell_angle_alpha                 90.0000000
_cell_angle_beta                  90.0000000
_cell_angle_gamma                 120.0000000
loop_
_atom_site_label
_atom_site_type_symbol
_atom_site_fract_x
_atom_site_fract_y
_atom_site_fract_z
_atom_site_U_iso_or_equiv
_atom_site_adp_type
_atom_site_occupancy
        C1          C  0.4852100  0.4850500  0.3371500    0.00000       Uiso       1.00
        C2          C  0.4533500  0.4844500  0.3550000    0.00000       Uiso       1.00
        C3          C  0.4276900  0.4646700  0.1631600    0.00000       Uiso       1.00
        C4          C  0.3991500  0.4670600  0.1561500    0.00000       Uiso       1.00
        C5          C  0.3960600  0.4893300  0.3410300    0.00000       Uiso       1.00
        C6          C  0.4210900  0.5081700  0.5430000    0.00000       Uiso       1.00
        C7          C  0.4492400  0.5051400  0.5508400    0.00000       Uiso       1.00
        H8          H  0.4699200  0.5199800  0.6989800    0.00000       Uiso       1.00
        C9          C  0.4823100  0.4520400  0.3209200    0.00000       Uiso       1.00
       C10          C  0.4551900  0.4249300  0.4570900    0.00000       Uiso       1.00
       C11          C  0.4514300  0.3933800  0.4517600    0.00000       Uiso       1.00
       C12          C  0.4753000  0.3882900  0.3120000    0.00000       Uiso       1.00
       C13          C  0.5016600  0.4147700  0.1626900    0.00000       Uiso       1.00
       C14          C  0.5049900  0.4460300  0.1674300    0.00000       Uiso       1.00
       N15          N  0.3684900  0.4932200  0.3258200    0.00000       Uiso       1.00
       C16          C  0.3395000  0.4672400  0.3005000    0.00000       Uiso       1.00
       C17          C  0.3104300  0.4709000  0.2792000    0.00000       Uiso       1.00
       C18          C  0.2806600  0.4464400  0.4034000    0.00000       Uiso       1.00
       C19          C  0.2543700  0.4523900  0.4351500    0.00000       Uiso       1.00
       C20          C  0.2575100  0.4821800  0.3303500    0.00000       Uiso       1.00
       C21          C  0.2871400  0.5062000  0.1992400    0.00000       Uiso       1.00
       C22          C  0.3135600  0.5005700  0.1709400    0.00000       Uiso       1.00
       N23          N  0.4720000  0.3570500  0.3188900    0.00000       Uiso       1.00
       C24          C  0.4981500  0.3542600  0.3459000    0.00000       Uiso       1.00
       C25          C  0.4953500  0.3217800  0.3349100    0.00000       Uiso       1.00
       C26          C  0.5208300  0.3169000  0.4430900    0.00000       Uiso       1.00
       C27          C  0.5168200  0.2851500  0.4423300    0.00000       Uiso       1.00
       C28          C  0.4872500  0.2583800  0.3366300    0.00000       Uiso       1.00
       C29          C  0.4617900  0.2633400  0.2282600    0.00000       Uiso       1.00
       C30          C  0.4659600  0.2949400  0.2248400    0.00000       Uiso       1.00
       H31          H  0.4312800  0.4484600  0.0112400    0.00000       Uiso       1.00
       H32          H  0.3796300  0.4534500 -0.0060900    0.00000       Uiso       1.00
       H33          H  0.4173900  0.5247600  0.6888700    0.00000       Uiso       1.00
       H34          H  0.4370500  0.4293300  0.5736100    0.00000       Uiso       1.00
       H35          H  0.4308800  0.3722600  0.5641900    0.00000       Uiso       1.00
       H36          H  0.5188800  0.4097900  0.0377100    0.00000       Uiso       1.00
       H37          H  0.5259000  0.4667600  0.0548500    0.00000       Uiso       1.00
       H38          H  0.3359100  0.4416400  0.3226800    0.00000       Uiso       1.00
       H39          H  0.2794100  0.4238400  0.4930900    0.00000       Uiso       1.00
       H40          H  0.2312100  0.4343900  0.5444700    0.00000       Uiso       1.00
       H41          H  0.2882300  0.5287100  0.1093100    0.00000       Uiso       1.00
       H42          H  0.3372500  0.5186800  0.0693600    0.00000       Uiso       1.00
       H43          H  0.5231400  0.3763600  0.3910300    0.00000       Uiso       1.00
       H44          H  0.5433300  0.3381900  0.5348600    0.00000       Uiso       1.00
       H45          H  0.5360800  0.2803700  0.5301100    0.00000       Uiso       1.00
       H46          H  0.4389900  0.2417600  0.1448600    0.00000       Uiso       1.00
       H47          H  0.4469300  0.3003700  0.1425600    0.00000       Uiso       1.00
       C48          C  0.5149500  0.0001600  0.3371500    0.00000       Uiso       1.00
       C49          C  0.5155500  0.9688990  0.3550000    0.00000       Uiso       1.00
       C50          C  0.5353300  0.9630190  0.1631600    0.00000       Uiso       1.00
       C51          C  0.5329400  0.9320890  0.1561500    0.00000       Uiso       1.00
       C52          C  0.5106700  0.9067289  0.3410300    0.00000       Uiso       1.00
       C53          C  0.4918300  0.9129190  0.5430000    0.00000       Uiso       1.00
       C54          C  0.4948600  0.9440989  0.5508400    0.00000       Uiso       1.00
       H55          H  0.4800200  0.9499390  0.6989800    0.00000       Uiso       1.00
       C56          C  0.5479600  0.0302700  0.3209200    0.00000       Uiso       1.00
       C57          C  0.5750700  0.0302600  0.4570900    0.00000       Uiso       1.00
       C58          C  0.6066200  0.0580500  0.4517600    0.00000       Uiso       1.00
       C59          C  0.6117100  0.0870100  0.3120000    0.00000       Uiso       1.00
       C60          C  0.5852300  0.0868900  0.1626900    0.00000       Uiso       1.00
       C61          C  0.5539700  0.0589600  0.1674300    0.00000       Uiso       1.00
       N62          N  0.5067800  0.8752690  0.3258200    0.00000       Uiso       1.00
       C63          C  0.5327600  0.8722590  0.3005000    0.00000       Uiso       1.00
       C64          C  0.5291000  0.8395290  0.2792000    0.00000       Uiso       1.00
       C65          C  0.5535600  0.8342189  0.4034000    0.00000       Uiso       1.00
       C66          C  0.5476100  0.8019790  0.4351500    0.00000       Uiso       1.00
       C67          C  0.5178200  0.7753290  0.3303500    0.00000       Uiso       1.00
       C68          C  0.4938000  0.7809390  0.1992400    0.00000       Uiso       1.00
       C69          C  0.4994300  0.8129890  0.1709400    0.00000       Uiso       1.00
       N70          N  0.6429500  0.1149500  0.3188900    0.00000       Uiso       1.00
       C71          C  0.6457400  0.1438900  0.3459000    0.00000       Uiso       1.00
       C72          C  0.6782200  0.1735700  0.3349100    0.00000       Uiso       1.00
       C73          C  0.6831000  0.2039300  0.4430900    0.00000       Uiso       1.00
       C74          C  0.7148500  0.2316700  0.4423300    0.00000       Uiso       1.00
       C75          C  0.7416200  0.2288700  0.3366300    0.00000       Uiso       1.00
       C76          C  0.7366600  0.1984500  0.2282600    0.00000       Uiso       1.00
       C77          C  0.7050600  0.1710200  0.2248400    0.00000       Uiso       1.00
       H78          H  0.5515400  0.9828190  0.0112400    0.00000       Uiso       1.00
       H79          H  0.5465500  0.9261789 -0.0060900    0.00000       Uiso       1.00
       H80          H  0.4752400  0.8926290  0.6888700    0.00000       Uiso       1.00
       H81          H  0.5706700  0.0077200  0.5736100    0.00000       Uiso       1.00
       H82          H  0.6277400  0.0586200  0.5641900    0.00000       Uiso       1.00
       H83          H  0.5902100  0.1090900  0.0377100    0.00000       Uiso       1.00
       H84          H  0.5332400  0.0591400  0.0548500    0.00000       Uiso       1.00
       H85          H  0.5583600  0.8942690  0.3226800    0.00000       Uiso       1.00
       H86          H  0.5761600  0.8555691  0.4930900    0.00000       Uiso       1.00
       H87          H  0.5656100  0.7968190  0.5444700    0.00000       Uiso       1.00
       H88          H  0.4712900  0.7595190  0.1093100    0.00000       Uiso       1.00
       H89          H  0.4813200  0.8185691  0.0693600    0.00000       Uiso       1.00
       H90          H  0.6236400  0.1467800  0.3910300    0.00000       Uiso       1.00
       H91          H  0.6618100  0.2051400  0.5348600    0.00000       Uiso       1.00
       H92          H  0.7196300  0.2557100  0.5301100    0.00000       Uiso       1.00
       H93          H  0.7582400  0.1972300  0.1448600    0.00000       Uiso       1.00
       H94          H  0.6996300  0.1465600  0.1425600    0.00000       Uiso       1.00
       C95          C  0.9998391  0.5147900  0.3371500    0.00000       Uiso       1.00
       C96          C  0.0311000  0.5466500  0.3550000    0.00000       Uiso       1.00
       C97          C  0.0369800  0.5723100  0.1631600    0.00000       Uiso       1.00
       C98          C  0.0679100  0.6008500  0.1561500    0.00000       Uiso       1.00
       C99          C  0.0932700  0.6039400  0.3410300    0.00000       Uiso       1.00
      C100          C  0.0870800  0.5789100  0.5430000    0.00000       Uiso       1.00
      C101          C  0.0559000  0.5507600  0.5508400    0.00000       Uiso       1.00
      H102          H  0.0500600  0.5300800  0.6989800    0.00000       Uiso       1.00
      C103          C  0.9697290  0.5176900  0.3209200    0.00000       Uiso       1.00
      C104          C  0.9697390  0.5448100  0.4570900    0.00000       Uiso       1.00
      C105          C  0.9419490  0.5485700  0.4517600    0.00000       Uiso       1.00
      C106          C  0.9129890  0.5247000  0.3120000    0.00000       Uiso       1.00
      C107          C  0.9131090  0.4983400  0.1626900    0.00000       Uiso       1.00
      C108          C  0.9410390  0.4950100  0.1674300    0.00000       Uiso       1.00
      N109          N  0.1247300  0.6315100  0.3258200    0.00000       Uiso       1.00
      C110          C  0.1277400  0.6605000  0.3005000    0.00000       Uiso       1.00
      C111          C  0.1604700  0.6895700  0.2792000    0.00000       Uiso       1.00
      C112          C  0.1657800  0.7193390  0.4034000    0.00000       Uiso       1.00
      C113          C  0.1980200  0.7456300  0.4351500    0.00000       Uiso       1.00
      C114          C  0.2246700  0.7424900  0.3303500    0.00000       Uiso       1.00
      C115          C  0.2190600  0.7128600  0.1992400    0.00000       Uiso       1.00
      C116          C  0.1870100  0.6864400  0.1709400    0.00000       Uiso       1.00
      N117          N  0.8850490  0.5280000  0.3188900    0.00000       Uiso       1.00
      C118          C  0.8561090  0.5018500  0.3459000    0.00000       Uiso       1.00
      C119          C  0.8264290  0.5046500  0.3349100    0.00000       Uiso       1.00
      C120          C  0.7960700  0.4791700  0.4430900    0.00000       Uiso       1.00
      C121          C  0.7683300  0.4831800  0.4423300    0.00000       Uiso       1.00
      C122          C  0.7711290  0.5127500  0.3366300    0.00000       Uiso       1.00
      C123          C  0.8015490  0.5382100  0.2282600    0.00000       Uiso       1.00
      C124          C  0.8289790  0.5340400  0.2248400    0.00000       Uiso       1.00
      H125          H  0.0171800  0.5687200  0.0112400    0.00000       Uiso       1.00
      H126          H  0.0738200  0.6203700 -0.0060900    0.00000       Uiso       1.00
      H127          H  0.1073700  0.5826100  0.6888700    0.00000       Uiso       1.00
      H128          H  0.9922791  0.5629500  0.5736100    0.00000       Uiso       1.00
      H129          H  0.9413790  0.5691200  0.5641900    0.00000       Uiso       1.00
      H130          H  0.8909090  0.4811200  0.0377100    0.00000       Uiso       1.00
      H131          H  0.9408590  0.4741000  0.0548500    0.00000       Uiso       1.00
      H132          H  0.1057300  0.6640900  0.3226800    0.00000       Uiso       1.00
      H133          H  0.1444300  0.7205900  0.4930900    0.00000       Uiso       1.00
      H134          H  0.2031800  0.7687900  0.5444700    0.00000       Uiso       1.00
      H135          H  0.2404800  0.7117700  0.1093100    0.00000       Uiso       1.00
      H136          H  0.1814300  0.6627500  0.0693600    0.00000       Uiso       1.00
      H137          H  0.8532190  0.4768600  0.3910300    0.00000       Uiso       1.00
      H138          H  0.7948590  0.4566700  0.5348600    0.00000       Uiso       1.00
      H139          H  0.7442900  0.4639200  0.5301100    0.00000       Uiso       1.00
      H140          H  0.8027690  0.5610100  0.1448600    0.00000       Uiso       1.00
      H141          H  0.8534390  0.5530700  0.1425600    0.00000       Uiso       1.00
      C142          C  0.5147900  0.5149500  0.3371500    0.00000       Uiso       1.00
      C143          C  0.5466500  0.5155500  0.3550000    0.00000       Uiso       1.00
      C144          C  0.5723100  0.5353300  0.1631600    0.00000       Uiso       1.00
      C145          C  0.6008500  0.5329400  0.1561500    0.00000       Uiso       1.00
      C146          C  0.6039400  0.5106700  0.3410300    0.00000       Uiso       1.00
      C147          C  0.5789100  0.4918300  0.5430000    0.00000       Uiso       1.00
      C148          C  0.5507600  0.4948600  0.5508400    0.00000       Uiso       1.00
      H149          H  0.5300800  0.4800200  0.6989800    0.00000       Uiso       1.00
      C150          C  0.5176900  0.5479600  0.3209200    0.00000       Uiso       1.00
      C151          C  0.5448100  0.5750700  0.4570900    0.00000       Uiso       1.00
      C152          C  0.5485700  0.6066200  0.4517600    0.00000       Uiso       1.00
      C153          C  0.5247000  0.6117100  0.3120000    0.00000       Uiso       1.00
      C154          C  0.4983400  0.5852300  0.1626900    0.00000       Uiso       1.00
      C155          C  0.4950100  0.5539700  0.1674300    0.00000       Uiso       1.00
      N156          N  0.6315100  0.5067800  0.3258200    0.00000       Uiso       1.00
      C157          C  0.6605000  0.5327600  0.3005000    0.00000       Uiso       1.00
      C158          C  0.6895700  0.5291000  0.2792000    0.00000       Uiso       1.00
      C159          C  0.7193400  0.5535600  0.4034000    0.00000       Uiso       1.00
      C160          C  0.7456290  0.5476100  0.4351500    0.00000       Uiso       1.00
      C161          C  0.7424900  0.5178200  0.3303500    0.00000       Uiso       1.00
      C162          C  0.7128600  0.4938000  0.1992400    0.00000       Uiso       1.00
      C163          C  0.6864400  0.4994300  0.1709400    0.00000       Uiso       1.00
      N164          N  0.5280000  0.6429500  0.3188900    0.00000       Uiso       1.00
      C165          C  0.5018500  0.6457400  0.3459000    0.00000       Uiso       1.00
      C166          C  0.5046500  0.6782200  0.3349100    0.00000       Uiso       1.00
      C167          C  0.4791700  0.6831000  0.4430900    0.00000       Uiso       1.00
      C168          C  0.4831800  0.7148500  0.4423300    0.00000       Uiso       1.00
      C169          C  0.5127500  0.7416200  0.3366300    0.00000       Uiso       1.00
      C170          C  0.5382100  0.7366600  0.2282600    0.00000       Uiso       1.00
      C171          C  0.5340400  0.7050600  0.2248400    0.00000       Uiso       1.00
      H172          H  0.5687200  0.5515400  0.0112400    0.00000       Uiso       1.00
      H173          H  0.6203700  0.5465500 -0.0060900    0.00000       Uiso       1.00
      H174          H  0.5826100  0.4752400  0.6888700    0.00000       Uiso       1.00
      H175          H  0.5629500  0.5706700  0.5736100    0.00000       Uiso       1.00
      H176          H  0.5691200  0.6277400  0.5641900    0.00000       Uiso       1.00
      H177          H  0.4811200  0.5902100  0.0377100    0.00000       Uiso       1.00
      H178          H  0.4741000  0.5332400  0.0548500    0.00000       Uiso       1.00
      H179          H  0.6640900  0.5583600  0.3226800    0.00000       Uiso       1.00
      H180          H  0.7205900  0.5761600  0.4930900    0.00000       Uiso       1.00
      H181          H  0.7687890  0.5656100  0.5444700    0.00000       Uiso       1.00
      H182          H  0.7117700  0.4712900  0.1093100    0.00000       Uiso       1.00
      H183          H  0.6627500  0.4813200  0.0693600    0.00000       Uiso       1.00
      H184          H  0.4768600  0.6236400  0.3910300    0.00000       Uiso       1.00
      H185          H  0.4566700  0.6618100  0.5348600    0.00000       Uiso       1.00
      H186          H  0.4639200  0.7196300  0.5301100    0.00000       Uiso       1.00
      H187          H  0.5610100  0.7582400  0.1448600    0.00000       Uiso       1.00
      H188          H  0.5530700  0.6996300  0.1425600    0.00000       Uiso       1.00
      C189          C  0.4850500  0.9998389  0.3371500    0.00000       Uiso       1.00
      C190          C  0.4844500  0.0311000  0.3550000    0.00000       Uiso       1.00
      C191          C  0.4646700  0.0369800  0.1631600    0.00000       Uiso       1.00
      C192          C  0.4670600  0.0679100  0.1561500    0.00000       Uiso       1.00
      C193          C  0.4893300  0.0932700  0.3410300    0.00000       Uiso       1.00
      C194          C  0.5081700  0.0870800  0.5430000    0.00000       Uiso       1.00
      C195          C  0.5051400  0.0559000  0.5508400    0.00000       Uiso       1.00
      H196          H  0.5199800  0.0500600  0.6989800    0.00000       Uiso       1.00
      C197          C  0.4520400  0.9697291  0.3209200    0.00000       Uiso       1.00
      C198          C  0.4249300  0.9697390  0.4570900    0.00000       Uiso       1.00
      C199          C  0.3933800  0.9419490  0.4517600    0.00000       Uiso       1.00
      C200          C  0.3882900  0.9129890  0.3120000    0.00000       Uiso       1.00
      C201          C  0.4147700  0.9131090  0.1626900    0.00000       Uiso       1.00
      C202          C  0.4460300  0.9410391  0.1674300    0.00000       Uiso       1.00
      N203          N  0.4932200  0.1247300  0.3258200    0.00000       Uiso       1.00
      C204          C  0.4672400  0.1277400  0.3005000    0.00000       Uiso       1.00
      C205          C  0.4709000  0.1604700  0.2792000    0.00000       Uiso       1.00
      C206          C  0.4464400  0.1657800  0.4034000    0.00000       Uiso       1.00
      C207          C  0.4523900  0.1980200  0.4351500    0.00000       Uiso       1.00
      C208          C  0.4821800  0.2246700  0.3303500    0.00000       Uiso       1.00
      C209          C  0.5062000  0.2190600  0.1992400    0.00000       Uiso       1.00
      C210          C  0.5005700  0.1870100  0.1709400    0.00000       Uiso       1.00
      N211          N  0.3570500  0.8850490  0.3188900    0.00000       Uiso       1.00
      C212          C  0.3542600  0.8561090  0.3459000    0.00000       Uiso       1.00
      C213          C  0.3217800  0.8264290  0.3349100    0.00000       Uiso       1.00
      C214          C  0.3169000  0.7960690  0.4430900    0.00000       Uiso       1.00
      C215          C  0.2851500  0.7683300  0.4423300    0.00000       Uiso       1.00
      C216          C  0.2583800  0.7711290  0.3366300    0.00000       Uiso       1.00
      C217          C  0.2633400  0.8015490  0.2282600    0.00000       Uiso       1.00
      C218          C  0.2949400  0.8289790  0.2248400    0.00000       Uiso       1.00
      H219          H  0.4484600  0.0171800  0.0112400    0.00000       Uiso       1.00
      H220          H  0.4534500  0.0738200 -0.0060900    0.00000       Uiso       1.00
      H221          H  0.5247600  0.1073700  0.6888700    0.00000       Uiso       1.00
      H222          H  0.4293300  0.9922791  0.5736100    0.00000       Uiso       1.00
      H223          H  0.3722600  0.9413790  0.5641900    0.00000       Uiso       1.00
      H224          H  0.4097900  0.8909090  0.0377100    0.00000       Uiso       1.00
      H225          H  0.4667600  0.9408590  0.0548500    0.00000       Uiso       1.00
      H226          H  0.4416400  0.1057300  0.3226800    0.00000       Uiso       1.00
      H227          H  0.4238400  0.1444300  0.4930900    0.00000       Uiso       1.00
      H228          H  0.4343900  0.2031800  0.5444700    0.00000       Uiso       1.00
      H229          H  0.5287100  0.2404800  0.1093100    0.00000       Uiso       1.00
      H230          H  0.5186800  0.1814300  0.0693600    0.00000       Uiso       1.00
      H231          H  0.3763600  0.8532190  0.3910300    0.00000       Uiso       1.00
      H232          H  0.3381900  0.7948590  0.5348600    0.00000       Uiso       1.00
      H233          H  0.2803700  0.7442900  0.5301100    0.00000       Uiso       1.00
      H234          H  0.2417600  0.8027690  0.1448600    0.00000       Uiso       1.00
      H235          H  0.3003700  0.8534390  0.1425600    0.00000       Uiso       1.00
      C236          C  0.0001600  0.4852100  0.3371500    0.00000       Uiso       1.00
      C237          C  0.9688990  0.4533500  0.3550000    0.00000       Uiso       1.00
      C238          C  0.9630190  0.4276900  0.1631600    0.00000       Uiso       1.00
      C239          C  0.9320890  0.3991500  0.1561500    0.00000       Uiso       1.00
      C240          C  0.9067289  0.3960600  0.3410300    0.00000       Uiso       1.00
      C241          C  0.9129190  0.4210900  0.5430000    0.00000       Uiso       1.00
      C242          C  0.9440990  0.4492400  0.5508400    0.00000       Uiso       1.00
      H243          H  0.9499390  0.4699200  0.6989800    0.00000       Uiso       1.00
      C244          C  0.0302700  0.4823100  0.3209200    0.00000       Uiso       1.00
      C245          C  0.0302600  0.4551900  0.4570900    0.00000       Uiso       1.00
      C246          C  0.0580500  0.4514300  0.4517600    0.00000       Uiso       1.00
      C247          C  0.0870100  0.4753000  0.3120000    0.00000       Uiso       1.00
      C248          C  0.0868900  0.5016600  0.1626900    0.00000       Uiso       1.00
      C249          C  0.0589600  0.5049900  0.1674300    0.00000       Uiso       1.00
      N250          N  0.8752690  0.3684900  0.3258200    0.00000       Uiso       1.00
      C251          C  0.8722590  0.3395000  0.3005000    0.00000       Uiso       1.00
      C252          C  0.8395290  0.3104300  0.2792000    0.00000       Uiso       1.00
      C253          C  0.8342190  0.2806600  0.4034000    0.00000       Uiso       1.00
      C254          C  0.8019790  0.2543700  0.4351500    0.00000       Uiso       1.00
      C255          C  0.7753290  0.2575100  0.3303500    0.00000       Uiso       1.00
      C256          C  0.7809390  0.2871400  0.1992400    0.00000       Uiso       1.00
      C257          C  0.8129890  0.3135600  0.1709400    0.00000       Uiso       1.00
      N258          N  0.1149500  0.4720000  0.3188900    0.00000       Uiso       1.00
      C259          C  0.1438900  0.4981500  0.3459000    0.00000       Uiso       1.00
      C260          C  0.1735700  0.4953500  0.3349100    0.00000       Uiso       1.00
      C261          C  0.2039300  0.5208300  0.4430900    0.00000       Uiso       1.00
      C262          C  0.2316700  0.5168200  0.4423300    0.00000       Uiso       1.00
      C263          C  0.2288700  0.4872500  0.3366300    0.00000       Uiso       1.00
      C264          C  0.1984500  0.4617900  0.2282600    0.00000       Uiso       1.00
      C265          C  0.1710200  0.4659600  0.2248400    0.00000       Uiso       1.00
      H266          H  0.9828190  0.4312800  0.0112400    0.00000       Uiso       1.00
      H267          H  0.9261790  0.3796300 -0.0060900    0.00000       Uiso       1.00
      H268          H  0.8926290  0.4173900  0.6888700    0.00000       Uiso       1.00
      H269          H  0.0077200  0.4370500  0.5736100    0.00000       Uiso       1.00
      H270          H  0.0586200  0.4308800  0.5641900    0.00000       Uiso       1.00
      H271          H  0.1090900  0.5188800  0.0377100    0.00000       Uiso       1.00
      H272          H  0.0591400  0.5259000  0.0548500    0.00000       Uiso       1.00
      H273          H  0.8942690  0.3359100  0.3226800    0.00000       Uiso       1.00
      H274          H  0.8555690  0.2794100  0.4930900    0.00000       Uiso       1.00
      H275          H  0.7968200  0.2312100  0.5444700    0.00000       Uiso       1.00
      H276          H  0.7595200  0.2882300  0.1093100    0.00000       Uiso       1.00
      H277          H  0.8185690  0.3372500  0.0693600    0.00000       Uiso       1.00
      H278          H  0.1467800  0.5231400  0.3910300    0.00000       Uiso       1.00
      H279          H  0.2051400  0.5433300  0.5348600    0.00000       Uiso       1.00
      H280          H  0.2557100  0.5360800  0.5301100    0.00000       Uiso       1.00
      H281          H  0.1972300  0.4389900  0.1448600    0.00000       Uiso       1.00
      H282          H  0.1465600  0.4469300  0.1425600    0.00000       Uiso       1.00
