data_DMTA-TPB3
_audit_creation_date              0000-00-00
_audit_creation_method            'LanYouShi'
_symmetry_space_group_name_H-M    'P1'
_cell_length_a                    37.7150002
_cell_length_b                    37.6910019
_cell_length_c                    3.5500000
_cell_angle_alpha                 90.0117035
_cell_angle_beta                  89.9843979
_cell_angle_gamma                 120.0100021
loop_
_atom_site_label
_atom_site_type_symbol
_atom_site_fract_x
_atom_site_fract_y
_atom_site_fract_z
_atom_site_U_iso_or_equiv
_atom_site_adp_type
_atom_site_occupancy
        C1          C  0.4787700  0.5235100  0.0683700    0.00000       Uiso       1.00
        C2          C  0.4664300  0.4826500 -0.0285600    0.00000       Uiso       1.00
        C3          C  0.4957300  0.4697100 -0.0372400    0.00000       Uiso       1.00
        C4          C  0.5367300  0.4963100  0.0672100    0.00000       Uiso       1.00
        C5          C  0.5489400  0.5370700  0.1649300    0.00000       Uiso       1.00
        C6          C  0.5197900  0.5501200  0.1696100    0.00000       Uiso       1.00
        O7          O  0.5896900  0.5634700  0.2776900    0.00000       Uiso       1.00
        C8          C  0.6098600  0.6040000  0.1238700    0.00000       Uiso       1.00
        O9          O  0.4256800  0.4564500 -0.1417200    0.00000       Uiso       1.00
       C10          C  0.4057700  0.4155700  0.0040300    0.00000       Uiso       1.00
       C11          C  0.5671900  0.4820400  0.0728200    0.00000       Uiso       1.00
       C12          C  0.4486200  0.5381100  0.0706200    0.00000       Uiso       1.00
       N13          N  0.4607900  0.5771300  0.0753700    0.00000       Uiso       1.00
       N14          N  0.5569100  0.4445500 -0.0145000    0.00000       Uiso       1.00
       C15          C  0.4351900  0.5955100  0.0741300    0.00000       Uiso       1.00
       C16          C  0.5827900  0.4263600 -0.0121500    0.00000       Uiso       1.00
       C17          C  0.5664300  0.3862800 -0.1464000    0.00000       Uiso       1.00
       C18          C  0.5895700  0.3665700 -0.1471700    0.00000       Uiso       1.00
       C19          C  0.6298300  0.3860400 -0.0023000    0.00000       Uiso       1.00
       C20          C  0.6461500  0.4264900  0.1335800    0.00000       Uiso       1.00
       C21          C  0.6232200  0.4464900  0.1264700    0.00000       Uiso       1.00
       C22          C  0.4522800  0.6362000 -0.0454300    0.00000       Uiso       1.00
       C23          C  0.4288500  0.6555500 -0.0566800    0.00000       Uiso       1.00
       C24          C  0.3876400  0.6351700  0.0636000    0.00000       Uiso       1.00
       C25          C  0.3710300  0.5945800  0.1971800    0.00000       Uiso       1.00
       C26          C  0.3943100  0.5749000  0.1992800    0.00000       Uiso       1.00
       C27          C  0.6539400  0.3639600  0.0220900    0.00000       Uiso       1.00
       C28          C  0.3622200  0.6557900  0.0364700    0.00000       Uiso       1.00
       C29          C  0.6967700  0.3856800  0.0348500    0.00000       Uiso       1.00
       C30          C  0.3148300  0.6958900 -0.0735000    0.00000       Uiso       1.00
       C31          C  0.4956200  0.9675300 -0.0016700    0.00000       Uiso       1.00
       C32          C  0.5367500  0.9982601 -0.0703100    0.00000       Uiso       1.00
       C33          C  0.5483800  0.0395500 -0.0231800    0.00000       Uiso       1.00
       C34          C  0.5205200  0.0515000  0.1020200    0.00000       Uiso       1.00
       C35          C  0.4798800  0.0212200  0.1770100    0.00000       Uiso       1.00
       C36          C  0.4679900  0.9795700  0.1328900    0.00000       Uiso       1.00
       O37          O  0.4523200  0.0333300  0.3076400    0.00000       Uiso       1.00
       C38          C  0.4131800  0.0153500  0.1276000    0.00000       Uiso       1.00
       O39          O  0.5666400  0.9899200 -0.2112300    0.00000       Uiso       1.00
       C40          C  0.5751400  0.9629000  0.0026500    0.00000       Uiso       1.00
       C41          C  0.5335400  0.0955900  0.1448000    0.00000       Uiso       1.00
       C42          C  0.4807000  0.9234800 -0.0806000    0.00000       Uiso       1.00
       N43          N  0.4460300  0.8955800  0.0589400    0.00000       Uiso       1.00
       N44          N  0.5696600  0.1233700  0.0327800    0.00000       Uiso       1.00
       C45          C  0.4266100  0.8517500  0.0256100    0.00000       Uiso       1.00
       C46          C  0.5879000  0.1671600  0.0448700    0.00000       Uiso       1.00
       C47          C  0.6261400  0.1900500 -0.1228200    0.00000       Uiso       1.00
       C48          C  0.6460900  0.2326400 -0.1206500    0.00000       Uiso       1.00
       C49          C  0.6311000  0.2540200  0.0769500    0.00000       Uiso       1.00
       C50          C  0.5913400  0.2311700  0.2330600    0.00000       Uiso       1.00
       C51          C  0.5696300  0.1880200  0.2133200    0.00000       Uiso       1.00
       C52          C  0.3879300  0.8288500  0.1859900    0.00000       Uiso       1.00
       C53          C  0.3676300  0.7862400  0.1782100    0.00000       Uiso       1.00
       C54          C  0.3829500  0.7648600 -0.0129500    0.00000       Uiso       1.00
       C55          C  0.4229300  0.7876300 -0.1642500    0.00000       Uiso       1.00
       C56          C  0.4448600  0.8308100 -0.1419500    0.00000       Uiso       1.00
       C57          C  0.6559000  0.2999100  0.0844800    0.00000       Uiso       1.00
       C58          C  0.3586000  0.7189700 -0.0155700    0.00000       Uiso       1.00
       C59          C  0.6342800  0.3211900  0.0418700    0.00000       Uiso       1.00
       C60          C  0.3198300  0.6330600 -0.0195500    0.00000       Uiso       1.00
       C61          C  0.0498700  0.5320100 -0.1219300    0.00000       Uiso       1.00
       C62          C  0.0234900  0.5481000 -0.1626800    0.00000       Uiso       1.00
       C63          C  0.9816300  0.5237000 -0.0782700    0.00000       Uiso       1.00
       C64          C  0.9652000  0.4829000  0.0424000    0.00000       Uiso       1.00
       C65          C  0.9915400  0.4660600  0.0589900    0.00000       Uiso       1.00
       C66          C  0.0334700  0.4911000 -0.0107000    0.00000       Uiso       1.00
       O67          O  0.9784700  0.4257200  0.1734400    0.00000       Uiso       1.00
       C68          C  0.9484700  0.3934500 -0.0553000    0.00000       Uiso       1.00
       O69          O  0.0379400  0.5863000 -0.3353400    0.00000       Uiso       1.00
       C70          C  0.0377900  0.6173500 -0.1077200    0.00000       Uiso       1.00
       C71          C  0.9209400  0.4579700  0.1374800    0.00000       Uiso       1.00
       C72          C  0.0946600  0.5590200 -0.1715500    0.00000       Uiso       1.00
       N73          N  0.1200800  0.5451100 -0.1537500    0.00000       Uiso       1.00
       N74          N  0.8958000  0.4720500  0.1027800    0.00000       Uiso       1.00
       C75          C  0.1639000  0.5713500 -0.1433700    0.00000       Uiso       1.00
       C76          C  0.8520500  0.4458200  0.1252200    0.00000       Uiso       1.00
       C77          C  0.8269700  0.4599100  0.2786000    0.00000       Uiso       1.00
       C78          C  0.7840800  0.4340100  0.2888600    0.00000       Uiso       1.00
       C79          C  0.7655800  0.3942500  0.1295700    0.00000       Uiso       1.00
       C80          C  0.7909500  0.3830600 -0.0510100    0.00000       Uiso       1.00
       C81          C  0.8333700  0.4069700 -0.0413700    0.00000       Uiso       1.00
       C82          C  0.1898700  0.5581500 -0.2921700    0.00000       Uiso       1.00
       C83          C  0.2327100  0.5842200 -0.2854400    0.00000       Uiso       1.00
       C84          C  0.2503200  0.6233700 -0.1143600    0.00000       Uiso       1.00
       C85          C  0.2239700  0.6334100  0.0657700    0.00000       Uiso       1.00
       C86          C  0.1815800  0.6092800  0.0399100    0.00000       Uiso       1.00
       C87          C  0.7200700  0.3664400  0.1003900    0.00000       Uiso       1.00
       C88          C  0.2957100  0.6516700 -0.0739500    0.00000       Uiso       1.00
       C89          C  0.6999600  0.3222300  0.1197200    0.00000       Uiso       1.00
       C90          C  0.3805500  0.6984600  0.0525400    0.00000       Uiso       1.00
       O91          O  0.7199000  2.3023701  0.2931600    0.00000       Uiso       1.00
       C92          C  0.7253600  2.2399199  0.1257500    0.00000       Uiso       1.00
       N93          N  0.7574000  2.2301800  0.2236400    0.00000       Uiso       1.00
       C94          C  0.7926200  2.2677300  0.3753700    0.00000       Uiso       1.00
       C95          C  0.7878001  2.3038700  0.2362100    0.00000       Uiso       1.00
       C96          C  0.7434000  2.2865000  0.0979900    0.00000       Uiso       1.00
       C97          C  0.7442700  2.1896000  0.3183400    0.00000       Uiso       1.00
       O98          O  0.7663600  2.1696000  0.2136900    0.00000       Uiso       1.00
       C99          C  0.7729000  2.1438401  0.4739300    0.00000       Uiso       1.00
      C100          C  0.7868500  2.1131401  0.3169600    0.00000       Uiso       1.00
      C101          C  0.8125401  2.1777201  0.6609100    0.00000       Uiso       1.00
      C102          C  0.7301800  2.1136601  0.6647100    0.00000       Uiso       1.00
      O103          O  0.7086000  2.1681800  0.4139100    0.00000       Uiso       1.00
      O104          O  1.2946900  1.7154300 -0.2485500    0.00000       Uiso       1.00
      C105          C  1.2875900  1.7770500 -0.0893900    0.00000       Uiso       1.00
      C106          C  1.2706900  1.7308000 -0.0543600    0.00000       Uiso       1.00
      C107          C  1.2260500  1.7120700 -0.1871200    0.00000       Uiso       1.00
      C108          C  1.2181900  1.7471100 -0.3057000    0.00000       Uiso       1.00
      N109          N  1.2549400  1.7855800 -0.1959200    0.00000       Uiso       1.00
      C110          C  1.2668101  1.8247700 -0.3290800    0.00000       Uiso       1.00
      O111          O  1.2427400  1.8438400 -0.2696100    0.00000       Uiso       1.00
      C112          C  1.2389600  1.8707500 -0.5387000    0.00000       Uiso       1.00
      C113          C  1.1982000  1.8388600 -0.7237400    0.00000       Uiso       1.00
      C114          C  1.2824600  1.8992900 -0.7169100    0.00000       Uiso       1.00
      C115          C  1.2279201  1.9041300 -0.4068700    0.00000       Uiso       1.00
      O116          O  1.3023200  1.8462400 -0.4275600    0.00000       Uiso       1.00
      C117          C  0.8366899  2.2781000  0.3219600    0.00000       Uiso       1.00
      O118          O  0.8478200  2.2530701  0.1247500    0.00000       Uiso       1.00
      C119          C  0.8906201  2.2665801  0.0816200    0.00000       Uiso       1.00
      O120          O  0.8630199  2.3099000  0.4682500    0.00000       Uiso       1.00
      C121          C  1.1760900  1.7394000 -0.1745100    0.00000       Uiso       1.00
      O122          O  1.1599200  1.7628200 -0.3218600    0.00000       Uiso       1.00
      C123          C  1.1191100  1.7525400 -0.2158200    0.00000       Uiso       1.00
      O124          O  1.1546700  1.7098700  0.0264600    0.00000       Uiso       1.00
      H125          H  0.4865900  0.4390000 -0.1316300    0.00000       Uiso       1.00
      H126          H  0.5289800  0.5808700  0.2621100    0.00000       Uiso       1.00
      H127          H  0.5901900  0.6100100 -0.0668700    0.00000       Uiso       1.00
      H128          H  0.6370900  0.6086400 -0.0361500    0.00000       Uiso       1.00
      H129          H  0.6207000  0.6269200  0.3528400    0.00000       Uiso       1.00
      H130          H  0.4251000  0.4096600  0.1998600    0.00000       Uiso       1.00
      H131          H  0.3962000  0.3932800 -0.2282900    0.00000       Uiso       1.00
      H132          H  0.3777300  0.4098700  0.1548000    0.00000       Uiso       1.00
      H133          H  0.5982500  0.5036700  0.1544800    0.00000       Uiso       1.00
      H134          H  0.4163300  0.5159000  0.0509200    0.00000       Uiso       1.00
      H135          H  0.5354900  0.3702800 -0.2559000    0.00000       Uiso       1.00
      H136          H  0.5757300  0.3362600 -0.2683700    0.00000       Uiso       1.00
      H137          H  0.6762200  0.4425600  0.2604400    0.00000       Uiso       1.00
      H138          H  0.6370900  0.4770400  0.2420600    0.00000       Uiso       1.00
      H139          H  0.4837700  0.6526800 -0.1407200    0.00000       Uiso       1.00
      H140          H  0.4430400  0.6862400 -0.1704600    0.00000       Uiso       1.00
      H141          H  0.3402700  0.5780700  0.3088800    0.00000       Uiso       1.00
      H142          H  0.3806200  0.5440500  0.3090300    0.00000       Uiso       1.00
      H143          H  0.7125500  0.4184100 -0.0092000    0.00000       Uiso       1.00
      H144          H  0.5797100  0.0624700 -0.0872300    0.00000       Uiso       1.00
      H145          H  0.4368700  0.9565300  0.2016500    0.00000       Uiso       1.00
      H146          H  0.4079600 -0.0089400 -0.0778400    0.00000       Uiso       1.00
      H147          H  0.4106000  0.0398100 -0.0215800    0.00000       Uiso       1.00
      H148          H  0.3885700  0.0019000  0.3413200    0.00000       Uiso       1.00
      H149          H  0.5755500  0.9397400 -0.1869100    0.00000       Uiso       1.00
      H150          H  0.5522300  0.9462500  0.2252400    0.00000       Uiso       1.00
      H151          H  0.6058900  0.9808099  0.1326300    0.00000       Uiso       1.00
      H152          H  0.5125300  0.1042500  0.2623800    0.00000       Uiso       1.00
      H153          H  0.4987900  0.9149200 -0.2531500    0.00000       Uiso       1.00
      H154          H  0.6398700  0.1746700 -0.2685200    0.00000       Uiso       1.00
      H155          H  0.6730200  0.2496300 -0.2844900    0.00000       Uiso       1.00
      H156          H  0.5775900  0.2463100  0.3819300    0.00000       Uiso       1.00
      H157          H  0.5397700  0.1715300  0.3431500    0.00000       Uiso       1.00
      H158          H  0.3742100  0.8442000  0.3324000    0.00000       Uiso       1.00
      H159          H  0.3403600  0.7690700  0.3356400    0.00000       Uiso       1.00
      H160          H  0.4368900  0.7722200 -0.3053800    0.00000       Uiso       1.00
      H161          H  0.4752600  0.8472700 -0.2615100    0.00000       Uiso       1.00
      H162          H  0.6013200  0.3037700  0.0265600    0.00000       Uiso       1.00
      H163          H  0.3052500  0.6000800 -0.0243300    0.00000       Uiso       1.00
      H164          H  0.9617600  0.5364400 -0.1171700    0.00000       Uiso       1.00
      H165          H  0.0533100  0.4782400  0.0237400    0.00000       Uiso       1.00
      H166          H  0.9626200  0.3772800 -0.1959200    0.00000       Uiso       1.00
      H167          H  0.9348100  0.4043700 -0.2691400    0.00000       Uiso       1.00
      H168          H  0.9232700  0.3711100  0.1254200    0.00000       Uiso       1.00
      H169          H  0.0429900  0.6434100 -0.2899900    0.00000       Uiso       1.00
      H170          H  0.0636100  0.6291400  0.0944100    0.00000       Uiso       1.00
      H171          H  0.0080900  0.6062200  0.0396000    0.00000       Uiso       1.00
      H172          H  0.9088300  0.4266200  0.2259400    0.00000       Uiso       1.00
      H173          H  0.1063800  0.5915700 -0.2066800    0.00000       Uiso       1.00
      H174          H  0.8406001  0.4903400  0.3987800    0.00000       Uiso       1.00
      H175          H  0.7656300  0.4450400  0.4223600    0.00000       Uiso       1.00
      H176          H  0.7769200  0.3573600 -0.2291400    0.00000       Uiso       1.00
      H177          H  0.8514400  0.3965000 -0.1912400    0.00000       Uiso       1.00
      H178          H  0.1769500  0.5284300 -0.4259200    0.00000       Uiso       1.00
      H179          H  0.2516700  0.5739300 -0.4206400    0.00000       Uiso       1.00
      H180          H  0.2369800  0.6586500  0.2521300    0.00000       Uiso       1.00
      H181          H  0.1627400  0.6189000  0.1881800    0.00000       Uiso       1.00
      H182          H  0.4127700  0.7163600  0.1201700    0.00000       Uiso       1.00
      H183          H  0.6991800  2.2263300  0.3164000    0.00000       Uiso       1.00
      H184          H  0.7126001  2.2244201 -0.1376900    0.00000       Uiso       1.00
      H185          H  0.7888800  2.2652400  0.6716399    0.00000       Uiso       1.00
      H186          H  0.8098699  2.3199699  0.0075100    0.00000       Uiso       1.00
      H187          H  0.7979000  2.3281500  0.4423000    0.00000       Uiso       1.00
      H188          H  0.7443100  2.2929201 -0.1906700    0.00000       Uiso       1.00
      H189          H  0.7877300  2.1094100  0.0183800    0.00000       Uiso       1.00
      H190          H  0.7672700  2.0810299  0.4139700    0.00000       Uiso       1.00
      H191          H  0.8180599  2.1208000  0.4101800    0.00000       Uiso       1.00
      H192          H  0.8374000  2.1908700  0.4519800    0.00000       Uiso       1.00
      H193          H  0.8275000  2.1698201  0.8810800    0.00000       Uiso       1.00
      H194          H  0.8084200  2.2036901  0.7296500    0.00000       Uiso       1.00
      H195          H  0.7283400  2.0880599  0.8307000    0.00000       Uiso       1.00
      H196          H  0.7076600  2.0974200  0.4373800    0.00000       Uiso       1.00
      H197          H  0.7155800  2.1270101  0.8346400    0.00000       Uiso       1.00
      H198          H  1.3140399  1.7911800 -0.2758900    0.00000       Uiso       1.00
      H199          H  1.2998400  1.7927600  0.1735200    0.00000       Uiso       1.00
      H200          H  1.2702000  1.7248200  0.2353700    0.00000       Uiso       1.00
      H201          H  1.2053300  1.6936800  0.0388900    0.00000       Uiso       1.00
      H202          H  1.2173300  1.6888800 -0.4020300    0.00000       Uiso       1.00
      H203          H  1.2177200  1.7476600 -0.6059200    0.00000       Uiso       1.00
      H204          H  1.1984800  1.8106900 -0.8019400    0.00000       Uiso       1.00
      H205          H  1.1855700  1.8487000 -0.9419000    0.00000       Uiso       1.00
      H206          H  1.1730700  1.8284600 -0.5177500    0.00000       Uiso       1.00
      H207          H  1.2872400  1.9272200 -0.8566100    0.00000       Uiso       1.00
      H208          H  1.2958200  1.8852000 -0.8910800    0.00000       Uiso       1.00
      H209          H  1.3047100  1.9131100 -0.4830500    0.00000       Uiso       1.00
      H210          H  1.1977000  1.8945800 -0.2827200    0.00000       Uiso       1.00
      H211          H  1.2248700  1.9191900 -0.6626100    0.00000       Uiso       1.00
      H212          H  1.2519100  1.9307500 -0.2576200    0.00000       Uiso       1.00
      H213          H  0.8979701  2.2679701 -0.2161600    0.00000       Uiso       1.00
      H214          H  0.8974900  2.2437601  0.2069800    0.00000       Uiso       1.00
      H215          H  0.9117799  2.2973700  0.1990600    0.00000       Uiso       1.00
      H216          H  1.1021000  1.7236900 -0.0535100    0.00000       Uiso       1.00
      H217          H  1.1007299  1.7488000 -0.4693100    0.00000       Uiso       1.00
      H218          H  1.1204600  1.7782500 -0.0528800    0.00000       Uiso       1.00
