data_DMTA-TPB4
_audit_creation_date              0000-00-00
_audit_creation_method            'LanYouShi'
_symmetry_space_group_name_H-M    'P1'
_cell_length_a                    37.1717987
_cell_length_b                    37.1601982
_cell_length_c                    6.7131000
_cell_angle_alpha                 90.1220016
_cell_angle_beta                  89.2679977
_cell_angle_gamma                 120.0220032
loop_
_atom_site_label
_atom_site_type_symbol
_atom_site_fract_x
_atom_site_fract_y
_atom_site_fract_z
_atom_site_U_iso_or_equiv
_atom_site_adp_type
_atom_site_occupancy
        C1          C  0.6963000  0.9017700  0.3819100    0.00000       Uiso       1.00
        C2          C  0.3815500  0.6837200  0.9280700    0.00000       Uiso       1.00
        C3          C  0.4272900  0.7039200  0.9276200    0.00000       Uiso       1.00
        C4          C  0.4475700  0.6946300  1.0759400    0.00000       Uiso       1.00
        C5          C  0.4909700  0.7152200  1.0789700    0.00000       Uiso       1.00
        C6          C  0.5144800  0.7449800  0.9331800    0.00000       Uiso       1.00
        C7          C  0.4941500  0.7536800  0.7824200    0.00000       Uiso       1.00
        C8          C  0.4508700  0.7332000  0.7802900    0.00000       Uiso       1.00
        N9          N  0.5588000  0.7667000  0.9449600    0.00000       Uiso       1.00
       C10          C  0.5831600  0.7945500  0.8164700    0.00000       Uiso       1.00
       C11          C  0.6286900  0.8173300  0.8364000    0.00000       Uiso       1.00
       C12          C  0.6490500  0.8127200  1.0019600    0.00000       Uiso       1.00
       C13          C  0.6926700  0.8361500  1.0080200    0.00000       Uiso       1.00
       O14          O  0.6253100  0.7850500  1.1561000    0.00000       Uiso       1.00
       C15          C  0.3583100  0.6405200  0.9281100    0.00000       Uiso       1.00
       C16          C  0.3634600  0.2313700 -0.3107000    0.00000       Uiso       1.00
       C17          C  0.0499700  0.0184200  0.2533900    0.00000       Uiso       1.00
       C18          C  0.0959000  0.0378200  0.2491500    0.00000       Uiso       1.00
       C19          C  0.1157100  0.0228700  0.3728800    0.00000       Uiso       1.00
       C20          C  0.1590500  0.0416800  0.3710200    0.00000       Uiso       1.00
       C21          C  0.1831400  0.0753900  0.2441200    0.00000       Uiso       1.00
       C22          C  0.1633700  0.0900100  0.1182100    0.00000       Uiso       1.00
       C23          C  0.1201800  0.0712700  0.1208000    0.00000       Uiso       1.00
       N24          N  0.2275000  0.0952600  0.2512900    0.00000       Uiso       1.00
       C25          C  0.2519200  0.1250700  0.1309800    0.00000       Uiso       1.00
       C26          C  0.2975600  0.1468600  0.1456000    0.00000       Uiso       1.00
       C27          C  0.3185700  0.1412600  0.3054600    0.00000       Uiso       1.00
       C28          C  0.3622200  0.1651300  0.3089500    0.00000       Uiso       1.00
       O29          O  0.2955300  0.1130100  0.4592900    0.00000       Uiso       1.00
       C30          C  0.0260500  0.9753900  0.2658600    0.00000       Uiso       1.00
       C31          C  0.0264000  0.5722600  0.0791200    0.00000       Uiso       1.00
       C32          C  0.7108200  0.3467500  0.5950000    0.00000       Uiso       1.00
       C33          C  0.7564200  0.3648400  0.5831500    0.00000       Uiso       1.00
       C34          C  0.7767400  0.3496900  0.7018700    0.00000       Uiso       1.00
       C35          C  0.8201600  0.3692300  0.6973100    0.00000       Uiso       1.00
       C36          C  0.8434600  0.4037100  0.5731100    0.00000       Uiso       1.00
       C37          C  0.8230500  0.4179900  0.4506800    0.00000       Uiso       1.00
       C38          C  0.7800000  0.3986100  0.4559500    0.00000       Uiso       1.00
       N39          N  0.8876800  0.4256700  0.5848900    0.00000       Uiso       1.00
       C40          C  0.9114301  0.4589000  0.4816100    0.00000       Uiso       1.00
       C41          C  0.9566400  0.4824100  0.5084100    0.00000       Uiso       1.00
       C42          C  0.9761700  0.4751100  0.6689000    0.00000       Uiso       1.00
       C43          C  0.0196000  0.4989500  0.6844100    0.00000       Uiso       1.00
       O44          O  0.9521400  0.4431100  0.8048801    0.00000       Uiso       1.00
       C45          C  0.6854500  0.3036600  0.5972900    0.00000       Uiso       1.00
       C46          C  0.1078200  0.7923000  0.3675900    0.00000       Uiso       1.00
       C47          C  0.3168900  0.6863200  0.9351600    0.00000       Uiso       1.00
       C48          C  0.2935800  0.7091800  0.9404400    0.00000       Uiso       1.00
       C49          C  0.3035100  0.7409500  1.0788000    0.00000       Uiso       1.00
       C50          C  0.2830200  0.7636800  1.0795400    0.00000       Uiso       1.00
       C51          C  0.2520300  0.7550500  0.9417100    0.00000       Uiso       1.00
       C52          C  0.2409600  0.7226000  0.8049701    0.00000       Uiso       1.00
       C53          C  0.2615900  0.6997500  0.8053300    0.00000       Uiso       1.00
       N54          N  0.2328200  0.7800900  0.9445500    0.00000       Uiso       1.00
       C55          C  0.2059900  0.7775200  0.8160400    0.00000       Uiso       1.00
       C56          C  0.1875500  0.8045400  0.8276500    0.00000       Uiso       1.00
       C57          C  0.1961100  0.8335600  0.9821500    0.00000       Uiso       1.00
       C58          C  0.1769400  0.8579100  0.9784400    0.00000       Uiso       1.00
       O59          O  0.2230800  0.8372700  1.1364100    0.00000       Uiso       1.00
       C60          C  0.3608300  0.7067900  0.9361100    0.00000       Uiso       1.00
       C61          C  0.7726200  0.1246900 -0.3005000    0.00000       Uiso       1.00
       C62          C  0.9857900  0.0222200  0.2563000    0.00000       Uiso       1.00
       C63          C  0.9630900  0.0457500  0.2590700    0.00000       Uiso       1.00
       C64          C  0.9744099  0.0789700  0.3903800    0.00000       Uiso       1.00
       C65          C  0.9536700  0.1015400  0.3915900    0.00000       Uiso       1.00
       C66          C  0.9209999  0.0912700  0.2613600    0.00000       Uiso       1.00
       C67          C  0.9088399  0.0575900  0.1311500    0.00000       Uiso       1.00
       C68          C  0.9297000  0.0349500  0.1310200    0.00000       Uiso       1.00
       N69          N  0.9008600  0.1155000  0.2663700    0.00000       Uiso       1.00
       C70          C  0.8720800  0.1109800  0.1450100    0.00000       Uiso       1.00
       C71          C  0.8525300  0.1370300  0.1591400    0.00000       Uiso       1.00
       C72          C  0.8605700  0.1656100  0.3150800    0.00000       Uiso       1.00
       C73          C  0.8405800  0.1892100  0.3138800    0.00000       Uiso       1.00
       O74          O  0.8878600  0.1696300  0.4683400    0.00000       Uiso       1.00
       C75          C  0.0297000  0.0419500  0.2508100    0.00000       Uiso       1.00
       C76          C  0.4432300  0.4616600  0.0418900    0.00000       Uiso       1.00
       C77          C  0.6486700  0.3537800  0.6092200    0.00000       Uiso       1.00
       C78          C  0.6275200  0.3786600  0.6136000    0.00000       Uiso       1.00
       C79          C  0.6395800  0.4116600  0.7473000    0.00000       Uiso       1.00
       C80          C  0.6198700  0.4352200  0.7492700    0.00000       Uiso       1.00
       C81          C  0.5876400  0.4261400  0.6178700    0.00000       Uiso       1.00
       C82          C  0.5748100  0.3926600  0.4858100    0.00000       Uiso       1.00
       C83          C  0.5945700  0.3690500  0.4846900    0.00000       Uiso       1.00
       N84          N  0.5688300  0.4516000  0.6216700    0.00000       Uiso       1.00
       C85          C  0.5409300  0.4480200  0.4971100    0.00000       Uiso       1.00
       C86          C  0.5224100  0.4749700  0.5064100    0.00000       Uiso       1.00
       C87          C  0.5308800  0.5043400  0.6588400    0.00000       Uiso       1.00
       C88          C  0.5115500  0.5285800  0.6522400    0.00000       Uiso       1.00
       O89          O  0.5576000  0.5081800  0.8146000    0.00000       Uiso       1.00
       C90          C  0.6924000  0.3720600  0.6043100    0.00000       Uiso       1.00
       C91          C  0.2658000  0.3145200  0.5208700    0.00000       Uiso       1.00
       C92          C  0.3149300  0.6198100  0.9319500    0.00000       Uiso       1.00
       C93          C  0.2910100  0.5741200  0.9241600    0.00000       Uiso       1.00
       C94          C  0.2475200  0.5533300  0.9176500    0.00000       Uiso       1.00
       C95          C  0.2249500  0.5103800  0.8969800    0.00000       Uiso       1.00
       C96          C  0.2452700  0.4874600  0.8829800    0.00000       Uiso       1.00
       C97          C  0.2887800  0.5079900  0.8882400    0.00000       Uiso       1.00
       C98          C  0.3114400  0.5510700  0.9077900    0.00000       Uiso       1.00
       N99          N  0.2208000  0.4435000  0.8605100    0.00000       Uiso       1.00
      C100          C  0.2364700  0.4196700  0.8315300    0.00000       Uiso       1.00
      C101          C  0.2098900  0.3747600  0.8019600    0.00000       Uiso       1.00
      C102          C  0.1671300  0.3529900  0.8512200    0.00000       Uiso       1.00
      C103          C  0.1438400  0.3108300  0.8009800    0.00000       Uiso       1.00
      O104          O  0.1489400  0.3734900  0.9506000    0.00000       Uiso       1.00
      C105          C  0.2946000  0.6429600  0.9327000    0.00000       Uiso       1.00
      C106          C  0.9450300  0.6531500 -0.0564300    0.00000       Uiso       1.00
      C107          C  0.9827200  0.9553100  0.2737300    0.00000       Uiso       1.00
      C108          C  0.9585200  0.9096500  0.2769600    0.00000       Uiso       1.00
      C109          C  0.9149700  0.8886600  0.2856200    0.00000       Uiso       1.00
      C110          C  0.8923300  0.8455400  0.2688900    0.00000       Uiso       1.00
      C111          C  0.9128600  0.8229700  0.2418600    0.00000       Uiso       1.00
      C112          C  0.9563700  0.8437900  0.2360000    0.00000       Uiso       1.00
      C113          C  0.9789100  0.8867700  0.2523800    0.00000       Uiso       1.00
      N114          N  0.8888800  0.7789800  0.2187400    0.00000       Uiso       1.00
      C115          C  0.9058200  0.7563300  0.1890600    0.00000       Uiso       1.00
      C116          C  0.8812301  0.7112500  0.1647300    0.00000       Uiso       1.00
      C117          C  0.8379700  0.6881700  0.2005300    0.00000       Uiso       1.00
      C118          C  0.8173800  0.6455400  0.1648900    0.00000       Uiso       1.00
      O119          O  0.8163100  0.7077600  0.2706000    0.00000       Uiso       1.00
      C120          C  0.9629099  0.9789000  0.2666900    0.00000       Uiso       1.00
      C121          C  0.5874800  0.9760900  0.2746600    0.00000       Uiso       1.00
      C122          C  0.6422000  0.2851600  0.6065800    0.00000       Uiso       1.00
      C123          C  0.6158000  0.2395700  0.5956600    0.00000       Uiso       1.00
      C124          C  0.5725100  0.2206000  0.6201400    0.00000       Uiso       1.00
      C125          C  0.5473500  0.1777600  0.5974900    0.00000       Uiso       1.00
      C126          C  0.5650000  0.1533800  0.5465900    0.00000       Uiso       1.00
      C127          C  0.6083100  0.1722100  0.5220900    0.00000       Uiso       1.00
      C128          C  0.6334500  0.2149100  0.5470700    0.00000       Uiso       1.00
      N129          N  0.5386300  0.1095300  0.5254800    0.00000       Uiso       1.00
      C130          C  0.5534400  0.0850200  0.4935700    0.00000       Uiso       1.00
      C131          C  0.5270400  0.0400300  0.4706100    0.00000       Uiso       1.00
      C132          C  0.4833500  0.0189100  0.4910700    0.00000       Uiso       1.00
      C133          C  0.4613600  0.9759200  0.4598600    0.00000       Uiso       1.00
      O134          O  0.4628500  0.0409400  0.5422400    0.00000       Uiso       1.00
      C135          C  0.6242700  0.3104700  0.6101700    0.00000       Uiso       1.00
      C136          C  0.3190500  0.1072900  0.6089800    0.00000       Uiso       1.00
      C137          C  0.6332800  0.3243000  0.1086700    0.00000       Uiso       1.00
      C138          C  0.5875100  0.3085800  0.1143900    0.00000       Uiso       1.00
      C139          C  0.5689300  0.3210900 -0.0297100    0.00000       Uiso       1.00
      C140          C  0.5255200  0.3020600 -0.0407300    0.00000       Uiso       1.00
      C141          C  0.4999300  0.2702500  0.0929200    0.00000       Uiso       1.00
      C142          C  0.5184100  0.2588400  0.2421500    0.00000       Uiso       1.00
      C143          C  0.5615400  0.2778300  0.2522400    0.00000       Uiso       1.00
      N144          N  0.4556300  0.2487200  0.0695800    0.00000       Uiso       1.00
      C145          C  0.4306700  0.2173700  0.1816700    0.00000       Uiso       1.00
      C146          C  0.3851000  0.1941300  0.1597000    0.00000       Uiso       1.00
      C147          C  0.3640800  0.1996600 -0.0003900    0.00000       Uiso       1.00
      C148          C  0.3204000  0.1757000 -0.0042100    0.00000       Uiso       1.00
      O149          O  0.3870000  0.2288500 -0.1509700    0.00000       Uiso       1.00
      C150          C  0.6616400  0.3670700  0.0937200    0.00000       Uiso       1.00
      C151          C  0.9653700  0.4521200  1.0047801    0.00000       Uiso       1.00
      C152          C  0.2917600  0.6482300  0.4463900    0.00000       Uiso       1.00
      C153          C  0.2461700  0.6314300  0.4519500    0.00000       Uiso       1.00
      C154          C  0.2270500  0.6403400  0.2962900    0.00000       Uiso       1.00
      C155          C  0.1838800  0.6230900  0.2950700    0.00000       Uiso       1.00
      C156          C  0.1591800  0.5969200  0.4499500    0.00000       Uiso       1.00
      C157          C  0.1783100  0.5887800  0.6091300    0.00000       Uiso       1.00
      C158          C  0.2214800  0.6059300  0.6096200    0.00000       Uiso       1.00
      N159          N  0.1148800  0.5776700  0.4369600    0.00000       Uiso       1.00
      C160          C  0.0892400  0.5508600  0.5659000    0.00000       Uiso       1.00
      C161          C  0.0436700  0.5300800  0.5453100    0.00000       Uiso       1.00
      C162          C  0.0238900  0.5382500  0.3873400    0.00000       Uiso       1.00
      C163          C  0.9803700  0.5142400  0.3729300    0.00000       Uiso       1.00
      O164          O  0.0479300  0.5697500  0.2478500    0.00000       Uiso       1.00
      C165          C  0.3180400  0.6912900  0.4369300    0.00000       Uiso       1.00
      C166          C  0.6478300  0.7826400  1.3199300    0.00000       Uiso       1.00
      C167          C  0.9630500  0.9849700  0.7681500    0.00000       Uiso       1.00
      C168          C  0.9176600  0.9689800  0.7734000    0.00000       Uiso       1.00
      C169          C  0.8989300  0.9785200  0.6181301    0.00000       Uiso       1.00
      C170          C  0.8557500  0.9607900  0.6133100    0.00000       Uiso       1.00
      C171          C  0.8307800  0.9334800  0.7642201    0.00000       Uiso       1.00
      C172          C  0.8495400  0.9250800  0.9238099    0.00000       Uiso       1.00
      C173          C  0.8926200  0.9427300  0.9280800    0.00000       Uiso       1.00
      N174          N  0.7865600  0.9132900  0.7480000    0.00000       Uiso       1.00
      C175          C  0.7614700  0.8857200  0.8754900    0.00000       Uiso       1.00
      C176          C  0.7160200  0.8639200  0.8556800    0.00000       Uiso       1.00
      C177          C  0.6956600  0.8690500  0.6913000    0.00000       Uiso       1.00
      C178          C  0.6520200  0.8453700  0.6847900    0.00000       Uiso       1.00
      O179          O  0.7192600  0.8972900  0.5385400    0.00000       Uiso       1.00
      C180          C  0.9901901  0.0278900  0.7468800    0.00000       Uiso       1.00
      C181          C  0.8941400  0.1991100  0.6195499    0.00000       Uiso       1.00
      C182          C  0.6922700  0.3116600  0.1002700    0.00000       Uiso       1.00
      C183          C  0.7104200  0.2842100  0.0980800    0.00000       Uiso       1.00
      C184          C  0.6967000  0.2517300 -0.0393400    0.00000       Uiso       1.00
      C185          C  0.7147700  0.2266900 -0.0486700    0.00000       Uiso       1.00
      C186          C  0.7470100  0.2338800  0.0791400    0.00000       Uiso       1.00
      C187          C  0.7613300  0.2667900  0.2158200    0.00000       Uiso       1.00
      C188          C  0.7432800  0.2919300  0.2242600    0.00000       Uiso       1.00
      N189          N  0.7652200  0.2079600  0.0640700    0.00000       Uiso       1.00
      C190          C  0.7941600  0.2114600  0.1814200    0.00000       Uiso       1.00
      C191          C  0.8131200  0.1850400  0.1643300    0.00000       Uiso       1.00
      C192          C  0.8050400  0.1565900  0.0080200    0.00000       Uiso       1.00
      C193          C  0.8250400  0.1328700  0.0088600    0.00000       Uiso       1.00
      O194          O  0.7778500  0.1529600 -0.1448800    0.00000       Uiso       1.00
      C195          C  0.6491700  0.2967000  0.1140500    0.00000       Uiso       1.00
      C196          C  0.5643200  0.5383500  0.9627200    0.00000       Uiso       1.00
      C197          C  0.3532100  0.6399000  0.4358500    0.00000       Uiso       1.00
      C198          C  0.3738500  0.6146800  0.4310100    0.00000       Uiso       1.00
      C199          C  0.3577400  0.5784600  0.3165400    0.00000       Uiso       1.00
      C200          C  0.3777800  0.5553100  0.3072400    0.00000       Uiso       1.00
      C201          C  0.4143000  0.5680600  0.4126700    0.00000       Uiso       1.00
      C202          C  0.4308600  0.6044900  0.5267600    0.00000       Uiso       1.00
      C203          C  0.4108500  0.6277400  0.5347800    0.00000       Uiso       1.00
      N204          N  0.4336900  0.5432700  0.4028300    0.00000       Uiso       1.00
      C205          C  0.4648300  0.5500300  0.5125500    0.00000       Uiso       1.00
      C206          C  0.4842300  0.5240000  0.5007700    0.00000       Uiso       1.00
      C207          C  0.4758100  0.4947100  0.3484000    0.00000       Uiso       1.00
      C208          C  0.4952400  0.4705700  0.3544300    0.00000       Uiso       1.00
      O209          O  0.4486300  0.4905600  0.1944200    0.00000       Uiso       1.00
      C210          C  0.3096100  0.6223000  0.4480200    0.00000       Uiso       1.00
      C211          C  0.2294900  0.8668300  1.2874100    0.00000       Uiso       1.00
      C212          C  0.0233400  0.9748400  0.7643700    0.00000       Uiso       1.00
      C213          C  0.0430500  0.9487500  0.7626000    0.00000       Uiso       1.00
      C214          C  0.0255100  0.9117500  0.6539299    0.00000       Uiso       1.00
      C215          C  0.0447200  0.8878200  0.6444400    0.00000       Uiso       1.00
      C216          C  0.0818400  0.9004900  0.7440999    0.00000       Uiso       1.00
      C217          C  0.0999400  0.9377800  0.8522100    0.00000       Uiso       1.00
      C218          C  0.0807500  0.9618700  0.8601100    0.00000       Uiso       1.00
      N219          N  0.1002500  0.8748000  0.7334700    0.00000       Uiso       1.00
      C220          C  0.1311800  0.8806600  0.8423100    0.00000       Uiso       1.00
      C221          C  0.1496800  0.8538700  0.8281300    0.00000       Uiso       1.00
      C222          C  0.1410700  0.8249500  0.6736001    0.00000       Uiso       1.00
      C223          C  0.1603900  0.8006600  0.6764600    0.00000       Uiso       1.00
      O224          O  0.1140100  0.8214600  0.5202300    0.00000       Uiso       1.00
      C225          C  0.9798600  0.9581600  0.7793000    0.00000       Uiso       1.00
      C226          C  0.7723400  0.6816900  0.2903900    0.00000       Uiso       1.00
      C227          C  0.7047200  0.3820700  0.0856100    0.00000       Uiso       1.00
      C228          C  0.7353800  0.4266800  0.0692700    0.00000       Uiso       1.00
      C229          C  0.7781300  0.4402400  0.0576800    0.00000       Uiso       1.00
      C230          C  0.8075400  0.4824100  0.0483000    0.00000       Uiso       1.00
      C231          C  0.7944800  0.5116000  0.0477800    0.00000       Uiso       1.00
      C232          C  0.7516900  0.4979600  0.0486600    0.00000       Uiso       1.00
      C233          C  0.7223700  0.4559400  0.0594300    0.00000       Uiso       1.00
      N234          N  0.8245500  0.5548600  0.0570900    0.00000       Uiso       1.00
      C235          C  0.8117400  0.5812300  0.0735000    0.00000       Uiso       1.00
      C236          C  0.8382000  0.6256800  0.0963200    0.00000       Uiso       1.00
      C237          C  0.8813500  0.6481900  0.0607200    0.00000       Uiso       1.00
      C238          C  0.9023900  0.6912000  0.0968100    0.00000       Uiso       1.00
      O239          O  0.9019000  0.6275300 -0.0110200    0.00000       Uiso       1.00
      C240          C  0.7192100  0.3540600  0.0874100    0.00000       Uiso       1.00
      C241          C  0.4186300  0.0170300  0.5521700    0.00000       Uiso       1.00
      C242          C  0.3613100  0.7088700  0.4325200    0.00000       Uiso       1.00
      C243          C  0.3890800  0.7542000  0.4241800    0.00000       Uiso       1.00
      C244          C  0.4324100  0.7712300  0.4132300    0.00000       Uiso       1.00
      C245          C  0.4587500  0.8140200  0.3971400    0.00000       Uiso       1.00
      C246          C  0.4420300  0.8402200  0.3866600    0.00000       Uiso       1.00
      C247          C  0.3987400  0.8232900  0.3939200    0.00000       Uiso       1.00
      C248          C  0.3725300  0.7806800  0.4136400    0.00000       Uiso       1.00
      N249          N  0.4693600  0.8840800  0.3833000    0.00000       Uiso       1.00
      C250          C  0.4549900  0.9093900  0.3843100    0.00000       Uiso       1.00
      C251          C  0.4814800  0.9541700  0.4060400    0.00000       Uiso       1.00
      C252          C  0.5249500  0.9751200  0.3826500    0.00000       Uiso       1.00
      C253          C  0.5472000  0.0180500  0.4182400    0.00000       Uiso       1.00
      O254          O  0.5445600  0.9525100  0.3267100    0.00000       Uiso       1.00
      C255          C  0.3782700  0.6829000  0.4305700    0.00000       Uiso       1.00
      C256          C  0.1055500  0.3488900  0.9937600    0.00000       Uiso       1.00
      C257          C  0.0334200  0.0445500  0.7395800    0.00000       Uiso       1.00
      C258          C  0.0625100  0.0896400  0.7145600    0.00000       Uiso       1.00
      C259          C  0.1056500  0.1052400  0.7049800    0.00000       Uiso       1.00
      C260          C  0.1333000  0.1476700  0.6779000    0.00000       Uiso       1.00
      C261          C  0.1183500  0.1752300  0.6558200    0.00000       Uiso       1.00
      C262          C  0.0751900  0.1595800  0.6591200    0.00000       Uiso       1.00
      C263          C  0.0476000  0.1173100  0.6898700    0.00000       Uiso       1.00
      N264          N  0.1471800  0.2190600  0.6562500    0.00000       Uiso       1.00
      C265          C  0.1343000  0.2454700  0.6766400    0.00000       Uiso       1.00
      C266          C  0.1618200  0.2901500  0.7058000    0.00000       Uiso       1.00
      C267          C  0.2045200  0.3116200  0.6581600    0.00000       Uiso       1.00
      C268          C  0.2279800  0.3540300  0.7073300    0.00000       Uiso       1.00
      O269          O  0.2223500  0.2905000  0.5619700    0.00000       Uiso       1.00
      C270          C  0.0492200  0.0176300  0.7474200    0.00000       Uiso       1.00
      C271          C  0.9534700  1.9133400  0.8350700    0.00000       Uiso       1.00
      O272          O  0.9199700  1.8912899  0.7097700    0.00000       Uiso       1.00
      C273          C  0.8948600  1.8552200  0.8193001    0.00000       Uiso       1.00
      C274          C  0.8492000  1.8396000  0.7834100    0.00000       Uiso       1.00
      N275          N  0.8348700  1.8021500  0.6676700    0.00000       Uiso       1.00
      C276          C  0.8665200  1.7902600  0.6396000    0.00000       Uiso       1.00
      C277          C  0.9036500  1.8209100  0.7573701    0.00000       Uiso       1.00
      C278          C  0.8521900  1.7467500  0.7078200    0.00000       Uiso       1.00
      O279          O  0.8139400  1.7243201  0.8081900    0.00000       Uiso       1.00
      C280          C  0.7952400  1.6807600  0.7849700    0.00000       Uiso       1.00
      O281          O  0.8741000  1.7313000  0.6738400    0.00000       Uiso       1.00
      C282          C  0.7975100  1.7836200  0.5743900    0.00000       Uiso       1.00
      O283          O  0.7652400  1.7901599  0.6429000    0.00000       Uiso       1.00
      C284          C  0.7233300  1.7586900  0.5981700    0.00000       Uiso       1.00
      C285          C  0.7140200  1.7161100  0.6716400    0.00000       Uiso       1.00
      C286          C  0.6937200  1.7689400  0.7060300    0.00000       Uiso       1.00
      O287          O  0.7920500  1.7607100  0.4333100    0.00000       Uiso       1.00
      C288          C  0.7149100  1.7569600  0.3761700    0.00000       Uiso       1.00
      C289          C  0.3845800 -0.2490100  1.9952000    0.00000       Uiso       1.00
      O290          O  0.4039600 -0.2219700  1.8381799    0.00000       Uiso       1.00
      C291          C  0.4192200 -0.1840400  1.9332200    0.00000       Uiso       1.00
      C292          C  0.4660200 -0.1593500  1.9243701    0.00000       Uiso       1.00
      N293          N  0.4762700 -0.1169500  1.8873600    0.00000       Uiso       1.00
      C294          C  0.4407100 -0.1157100  1.8040001    0.00000       Uiso       1.00
      C295          C  0.4032100 -0.1584400  1.8364800    0.00000       Uiso       1.00
      C296          C  0.4319200 -0.0832100  1.8849400    0.00000       Uiso       1.00
      O297          O  0.4640700 -0.0458100  1.9586700    0.00000       Uiso       1.00
      C298          C  0.4510900 -0.0168500  2.0061500    0.00000       Uiso       1.00
      O299          O  0.3965700 -0.0888900  1.8713100    0.00000       Uiso       1.00
      C300          C  0.5171100 -0.0867000  1.8651000    0.00000       Uiso       1.00
      O301          O  0.5485000 -0.0955500  1.9178300    0.00000       Uiso       1.00
      C302          C  0.5822400 -0.0840200  1.7784100    0.00000       Uiso       1.00
      C303          C  0.6071300 -0.0373100  1.7423300    0.00000       Uiso       1.00
      C304          C  0.6114800 -0.0970500  1.8642100    0.00000       Uiso       1.00
      O305          O  0.5262700 -0.0524000  1.8024200    0.00000       Uiso       1.00
      C306          C  0.5662900 -0.1066300  1.5819200    0.00000       Uiso       1.00
      C307          C  0.7197700  0.4174500  1.6379800    0.00000       Uiso       1.00
      O308          O  0.7181800  0.4418000  1.4852400    0.00000       Uiso       1.00
      C309          C  0.7339200  0.4808200  1.5728600    0.00000       Uiso       1.00
      C310          C  0.7809300  0.5035800  1.5782698    0.00000       Uiso       1.00
      N311          N  0.7935900  0.5467000  1.5490701    0.00000       Uiso       1.00
      C312          C  0.7599400  0.5521500  1.4729500    0.00000       Uiso       1.00
      C313          C  0.7226500  0.5085200  1.4553200    0.00000       Uiso       1.00
      C314          C  0.7488700  0.5761600  1.6146200    0.00000       Uiso       1.00
      O315          O  0.7386600  0.5625300  1.8130099    0.00000       Uiso       1.00
      C316          C  0.7225200  0.5835500  1.9279100    0.00000       Uiso       1.00
      O317          O  0.7477100  0.6064700  1.5526100    0.00000       Uiso       1.00
      C318          C  0.8334300  0.5779600  1.5833201    0.00000       Uiso       1.00
      O319          O  0.8622100  0.5689000  1.6715200    0.00000       Uiso       1.00
      C320          C  0.8897000  0.5629900  1.5412600    0.00000       Uiso       1.00
      C321          C  0.9217100  0.5601200  1.6672601    0.00000       Uiso       1.00
      C322          C  0.8665800  0.5227700  1.4257500    0.00000       Uiso       1.00
      O323          O  0.8432200  0.6140200  1.5539900    0.00000       Uiso       1.00
      C324          C  0.9127000  0.5991600  1.3974600    0.00000       Uiso       1.00
      C325          C  0.6212500  1.2527900  1.1693400    0.00000       Uiso       1.00
      O326          O  0.6091100  1.2267500  1.0071200    0.00000       Uiso       1.00
      C327          C  0.5927600  1.1880500  1.0963300    0.00000       Uiso       1.00
      C328          C  0.5462200  1.1680200  1.1227400    0.00000       Uiso       1.00
      N329          N  0.5300900  1.1249800  1.0722600    0.00000       Uiso       1.00
      C330          C  0.5601300  1.1192501  0.9543900    0.00000       Uiso       1.00
      C331          C  0.6011400  1.1596299  0.9688200    0.00000       Uiso       1.00
      C332          C  0.5653900  1.0835700  1.0188600    0.00000       Uiso       1.00
      O333          O  0.6033700  1.0915800  1.1002600    0.00000       Uiso       1.00
      C334          C  0.6125900  1.0592200  1.0699900    0.00000       Uiso       1.00
      O335          O  0.5375200  1.0480700  0.9897300    0.00000       Uiso       1.00
      C336          C  0.4883200  1.0974900  1.0857400    0.00000       Uiso       1.00
      O337          O  0.4628800  1.1073101  1.2049800    0.00000       Uiso       1.00
      C338          C  0.4202000  1.0907800  1.1494600    0.00000       Uiso       1.00
      C339          C  0.3959800  1.0435500  1.1428300    0.00000       Uiso       1.00
      C340          C  0.3992500  1.1038300  1.3046200    0.00000       Uiso       1.00
      O341          O  0.4735600  1.0648500  0.9963500    0.00000       Uiso       1.00
      C342          C  0.4174800  1.1083200  0.9495100    0.00000       Uiso       1.00
      C343          C  1.2834100  1.5768100  1.4823999    0.00000       Uiso       1.00
      O344          O  1.2525400  1.5585300  1.3415600    0.00000       Uiso       1.00
      C345          C  1.2228400  1.5224500  1.4362800    0.00000       Uiso       1.00
      C346          C  1.1799300  1.5126200  1.3732800    0.00000       Uiso       1.00
      N347          N  1.1651300  1.4761900  1.2508700    0.00000       Uiso       1.00
      C348          C  1.1888400  1.4552100  1.2742400    0.00000       Uiso       1.00
      C349          C  1.2287900  1.4864100  1.3719701    0.00000       Uiso       1.00
      C350          C  1.1662800  1.4186300  1.4101101    0.00000       Uiso       1.00
      O351          O  1.1317101  1.4137100  1.5206900    0.00000       Uiso       1.00
      C352          C  1.1019800  1.3719100  1.5673701    0.00000       Uiso       1.00
      O353          O  1.1790600  1.3942800  1.4252099    0.00000       Uiso       1.00
      C354          C  1.1282300  1.4588100  1.1537300    0.00000       Uiso       1.00
      O355          O  1.0974801  1.4678299  1.2177600    0.00000       Uiso       1.00
      C356          C  1.0553600  1.4389200  1.1653500    0.00000       Uiso       1.00
      C357          C  1.0425299  1.3944800  1.2247001    0.00000       Uiso       1.00
      C358          C  1.0275400  1.4504300  1.2799900    0.00000       Uiso       1.00
      O359          O  1.1218400  1.4343899  1.0189700    0.00000       Uiso       1.00
      C360          C  1.0488501  1.4412600  0.9437600    0.00000       Uiso       1.00
      C361          C  0.0547400  0.0869000  1.2877098    0.00000       Uiso       1.00
      O362          O  0.0644800  0.1103100  1.1162300    0.00000       Uiso       1.00
      C363          C  0.0839700  0.1500100  1.1938601    0.00000       Uiso       1.00
      C364          C  0.1306100  0.1702000  1.1773800    0.00000       Uiso       1.00
      N365          N  0.1444600  0.2136300  1.1451800    0.00000       Uiso       1.00
      C366          C  0.1102900  0.2202400  1.0916800    0.00000       Uiso       1.00
      C367          C  0.0720500  0.1774500  1.0827100    0.00000       Uiso       1.00
      C368          C  0.1040900  0.2466200  1.2400800    0.00000       Uiso       1.00
      O369          O  0.1344200  0.2885700  1.2504900    0.00000       Uiso       1.00
      C370          C  0.1208800  0.3122500  1.3590699    0.00000       Uiso       1.00
      O371          O  0.0725600  0.2319100  1.3450400    0.00000       Uiso       1.00
      C372          C  0.1858700  0.2423900  1.1315600    0.00000       Uiso       1.00
      O373          O  0.2152200  0.2308000  1.1827300    0.00000       Uiso       1.00
      C374          C  0.2511500  0.2441800  1.0561700    0.00000       Uiso       1.00
      C375          C  0.2771800  0.2912500  1.0385200    0.00000       Uiso       1.00
      C376          C  0.2780900  0.2289800  1.1479800    0.00000       Uiso       1.00
      O377          O  0.1970300  0.2780900  1.0817100    0.00000       Uiso       1.00
      C378          C  0.2386500  0.2251300  0.8501700    0.00000       Uiso       1.00
      H379          H  0.6753100  0.8701600  0.3118800    0.00000       Uiso       1.00
      H380          H  0.7187200  0.9239600  0.2639600    0.00000       Uiso       1.00
      H381          H  0.6765000  0.9147800  0.4445100    0.00000       Uiso       1.00
      H382          H  0.4286900  0.6702400  1.1944799    0.00000       Uiso       1.00
      H383          H  0.5074300  0.7078200  1.2006700    0.00000       Uiso       1.00
      H384          H  0.5130200  0.7774900  0.6616400    0.00000       Uiso       1.00
      H385          H  0.4347100  0.7405200  0.6568100    0.00000       Uiso       1.00
      H386          H  0.5694900  0.8021100  0.6826500    0.00000       Uiso       1.00
      H387          H  0.7098300  0.8327200  1.1396101    0.00000       Uiso       1.00
      H388          H  0.3746600  0.6214900  0.9249700    0.00000       Uiso       1.00
      H389          H  0.3442400  0.1993700 -0.3804400    0.00000       Uiso       1.00
      H390          H  0.3854400  0.2541900 -0.4279700    0.00000       Uiso       1.00
      H391          H  0.3418700  0.2425500 -0.2514700    0.00000       Uiso       1.00
      H392          H  0.0964700 -0.0047900  0.4757900    0.00000       Uiso       1.00
      H393          H  0.1749400  0.0295700  0.4732300    0.00000       Uiso       1.00
      H394          H  0.1826300  0.1173000  0.0133800    0.00000       Uiso       1.00
      H395          H  0.1046300  0.0834600  0.0168600    0.00000       Uiso       1.00
      H396          H  0.2382500  0.1354200  0.0075800    0.00000       Uiso       1.00
      H397          H  0.3799500  0.1611100  0.4361400    0.00000       Uiso       1.00
      H398          H  0.0417600  0.9557700  0.2698600    0.00000       Uiso       1.00
      H399          H  0.0103100  0.5409400  0.0004900    0.00000       Uiso       1.00
      H400          H  0.0494700  0.5971100 -0.0279900    0.00000       Uiso       1.00
      H401          H  0.0022100  0.5807400  0.1298800    0.00000       Uiso       1.00
      H402          H  0.7579000  0.3214600  0.8021100    0.00000       Uiso       1.00
      H403          H  0.8367000  0.3570900  0.7949100    0.00000       Uiso       1.00
      H404          H  0.8417600  0.4455500  0.3465300    0.00000       Uiso       1.00
      H405          H  0.7638900  0.4106000  0.3545400    0.00000       Uiso       1.00
      H406          H  0.8973200  0.4705500  0.3664600    0.00000       Uiso       1.00
      H407          H  0.0359500  0.4931000  0.8123100    0.00000       Uiso       1.00
      H408          H  0.6999100  0.2829100  0.5915300    0.00000       Uiso       1.00
      H409          H  0.1225800  0.7731100  0.4128900    0.00000       Uiso       1.00
      H410          H  0.1228100  0.8096300  0.2228100    0.00000       Uiso       1.00
      H411          H  0.0730900  0.7708400  0.3449000    0.00000       Uiso       1.00
      H412          H  0.3287100  0.7485300  1.1931500    0.00000       Uiso       1.00
      H413          H  0.2915700  0.7894700  1.1931700    0.00000       Uiso       1.00
      H414          H  0.2151800  0.7148800  0.6937900    0.00000       Uiso       1.00
      H415          H  0.2522000  0.6733000  0.6946800    0.00000       Uiso       1.00
      H416          H  0.1961100  0.7539500  0.6901300    0.00000       Uiso       1.00
      H417          H  0.1835500  0.8817200  1.1005100    0.00000       Uiso       1.00
      H418          H  0.7876500  0.1056700 -0.2564900    0.00000       Uiso       1.00
      H419          H  0.7879600  0.1428100 -0.4431000    0.00000       Uiso       1.00
      H420          H  0.7380600  0.1029700 -0.3264600    0.00000       Uiso       1.00
      H421          H  1.0009500  0.0879300  0.4984900    0.00000       Uiso       1.00
      H422          H  0.9633901  0.1285200  0.4993100    0.00000       Uiso       1.00
      H423          H  0.8819400  0.0486500  0.0253200    0.00000       Uiso       1.00
      H424          H  0.9193100  0.0075200  0.0255200    0.00000       Uiso       1.00
      H425          H  0.8612700  0.0863800  0.0235200    0.00000       Uiso       1.00
      H426          H  0.8466600  0.2125600  0.4376000    0.00000       Uiso       1.00
      H427          H  0.4582800  0.4428000  0.0885500    0.00000       Uiso       1.00
      H428          H  0.4584600  0.4791800 -0.1021800    0.00000       Uiso       1.00
      H429          H  0.4086500  0.4398500  0.0171700    0.00000       Uiso       1.00
      H430          H  0.6657800  0.4195000  0.8560700    0.00000       Uiso       1.00
      H431          H  0.6300600  0.4620200  0.8585100    0.00000       Uiso       1.00
      H432          H  0.5482300  0.3847100  0.3792800    0.00000       Uiso       1.00
      H433          H  0.5836700  0.3417800  0.3777700    0.00000       Uiso       1.00
      H434          H  0.5299800  0.4234400  0.3755300    0.00000       Uiso       1.00
      H435          H  0.5180700  0.5527100  0.7725900    0.00000       Uiso       1.00
      H436          H  0.2710500  0.3252900  0.3588400    0.00000       Uiso       1.00
      H437          H  0.2808300  0.2947500  0.5481400    0.00000       Uiso       1.00
      H438          H  0.2802900  0.3427600  0.6227400    0.00000       Uiso       1.00
      H439          H  0.2304900  0.5716400  0.9293300    0.00000       Uiso       1.00
      H440          H  0.1895800  0.4936500  0.8913600    0.00000       Uiso       1.00
      H441          H  0.3055800  0.4894500  0.8765300    0.00000       Uiso       1.00
      H442          H  0.3468200  0.5675900  0.9104400    0.00000       Uiso       1.00
      H443          H  0.2716200  0.4334600  0.8285700    0.00000       Uiso       1.00
      H444          H  0.1091800  0.2924500  0.8378800    0.00000       Uiso       1.00
      H445          H  0.2592100  0.6264000  0.9312800    0.00000       Uiso       1.00
      H446          H  0.9491200  0.6636400 -0.2186900    0.00000       Uiso       1.00
      H447          H  0.9616200  0.6347800 -0.0314300    0.00000       Uiso       1.00
      H448          H  0.9588400  0.6815500  0.0444900    0.00000       Uiso       1.00
      H449          H  0.8980300  0.9068900  0.3063900    0.00000       Uiso       1.00
      H450          H  0.8569300  0.8285400  0.2772400    0.00000       Uiso       1.00
      H451          H  0.9732500  0.8254400  0.2177800    0.00000       Uiso       1.00
      H452          H  1.0143000  0.9034400  0.2456800    0.00000       Uiso       1.00
      H453          H  0.9411000  0.7714000  0.1810800    0.00000       Uiso       1.00
      H454          H  0.7824200  0.6260300  0.1922000    0.00000       Uiso       1.00
      H455          H  0.9275400  0.9627500  0.2694100    0.00000       Uiso       1.00
      H456          H  0.5909700  0.9860600  0.1117900    0.00000       Uiso       1.00
      H457          H  0.6026400  0.9562900  0.2974900    0.00000       Uiso       1.00
      H458          H  0.6032300  1.0048200  0.3730000    0.00000       Uiso       1.00
      H459          H  0.5577100  0.2402400  0.6587900    0.00000       Uiso       1.00
      H460          H  0.5122900  0.1625200  0.6204800    0.00000       Uiso       1.00
      H461          H  0.6229500  0.1525100  0.4816500    0.00000       Uiso       1.00
      H462          H  0.6685700  0.2298300  0.5278500    0.00000       Uiso       1.00
      H463          H  0.5884600  0.0982700  0.4822200    0.00000       Uiso       1.00
      H464          H  0.4261100  0.9578500  0.4784300    0.00000       Uiso       1.00
      H465          H  0.5890101  0.2958400  0.6139600    0.00000       Uiso       1.00
      H466          H  0.3533800  0.1248300  0.5648300    0.00000       Uiso       1.00
      H467          H  0.3081000  0.0727700  0.6249800    0.00000       Uiso       1.00
      H468          H  0.3145000  0.1197000  0.7569401    0.00000       Uiso       1.00
      H469          H  0.5891300  0.3469800 -0.1395900    0.00000       Uiso       1.00
      H470          H  0.5108500  0.3124600 -0.1589500    0.00000       Uiso       1.00
      H471          H  0.4981500  0.2339200  0.3560300    0.00000       Uiso       1.00
      H472          H  0.5756500  0.2679300  0.3754600    0.00000       Uiso       1.00
      H473          H  0.4437100  0.2064100  0.3053600    0.00000       Uiso       1.00
      H474          H  0.3026900  0.1795600 -0.1320300    0.00000       Uiso       1.00
      H475          H  0.6498800  0.3901000  0.0880100    0.00000       Uiso       1.00
      H476          H  0.9913600  0.4858500  1.0158900    0.00000       Uiso       1.00
      H477          H  0.9772900  0.4307300  1.0550801    0.00000       Uiso       1.00
      H478          H  0.9381300  0.4470400  1.1043000    0.00000       Uiso       1.00
      H479          H  0.2466800  0.6618000  0.1693400    0.00000       Uiso       1.00
      H480          H  0.1685800  0.6303300  0.1671800    0.00000       Uiso       1.00
      H481          H  0.1586500  0.5681600  0.7383100    0.00000       Uiso       1.00
      H482          H  0.2365600  0.5990100  0.7396200    0.00000       Uiso       1.00
      H483          H  0.1016500  0.5424700  0.7019200    0.00000       Uiso       1.00
      H484          H  0.9637300  0.5206200  0.2483400    0.00000       Uiso       1.00
      H485          H  0.3043500  0.7127100  0.4326700    0.00000       Uiso       1.00
      H486          H  0.6824100  0.8051900  1.2952400    0.00000       Uiso       1.00
      H487          H  0.6422200  0.7496400  1.3334000    0.00000       Uiso       1.00
      H488          H  0.6369300  0.7911600  1.4626700    0.00000       Uiso       1.00
      H489          H  0.9189200  1.0008700  0.4946000    0.00000       Uiso       1.00
      H490          H  0.8407600  0.9685900  0.4860000    0.00000       Uiso       1.00
      H491          H  0.8295600  0.9037800  1.0504600    0.00000       Uiso       1.00
      H492          H  0.9074400  0.9356800  1.0587300    0.00000       Uiso       1.00
      H493          H  0.7744000  0.8774700  1.0099601    0.00000       Uiso       1.00
      H494          H  0.6348200  0.8488200  0.5534100    0.00000       Uiso       1.00
      H495          H  0.9772300  0.0498600  0.7352100    0.00000       Uiso       1.00
      H496          H  0.9124200  0.2318600  0.5547300    0.00000       Uiso       1.00
      H497          H  0.9122700  0.1957200  0.7467900    0.00000       Uiso       1.00
      H498          H  0.8627500  0.1933300  0.6781200    0.00000       Uiso       1.00
      H499          H  0.6704900  0.2455100 -0.1452000    0.00000       Uiso       1.00
      H500          H  0.7032200  0.2002600 -0.1608900    0.00000       Uiso       1.00
      H501          H  0.7877600  0.2730400  0.3203000    0.00000       Uiso       1.00
      H502          H  0.7553500  0.3188000  0.3341800    0.00000       Uiso       1.00
      H503          H  0.8059600  0.2357900  0.3042700    0.00000       Uiso       1.00
      H504          H  0.8189600  0.1095700 -0.1151500    0.00000       Uiso       1.00
      H505          H  0.5826200  0.5708100  0.8946600    0.00000       Uiso       1.00
      H506          H  0.5826200  0.5354100  1.0904300    0.00000       Uiso       1.00
      H507          H  0.5331000  0.5329800  1.0215900    0.00000       Uiso       1.00
      H508          H  0.3279200  0.5676600  0.2297500    0.00000       Uiso       1.00
      H509          H  0.3643600  0.5258900  0.2134100    0.00000       Uiso       1.00
      H510          H  0.4607000  0.6150900  0.6130200    0.00000       Uiso       1.00
      H511          H  0.4246900  0.6574900  0.6262299    0.00000       Uiso       1.00
      H512          H  0.4780600  0.5768900  0.6226800    0.00000       Uiso       1.00
      H513          H  0.4889400  0.4466700  0.2332100    0.00000       Uiso       1.00
      H514          H  0.2477900  0.8995500  1.2222600    0.00000       Uiso       1.00
      H515          H  0.2476500  0.8634500  1.4145300    0.00000       Uiso       1.00
      H516          H  0.1981500  0.8611300  1.3462400    0.00000       Uiso       1.00
      H517          H -0.0048600  0.9008800  0.5718600    0.00000       Uiso       1.00
      H518          H  0.0301100  0.8577800  0.5550400    0.00000       Uiso       1.00
      H519          H  0.1303300  0.9484000  0.9336400    0.00000       Uiso       1.00
      H520          H  0.0958600  0.9923200  0.9462700    0.00000       Uiso       1.00
      H521          H  0.1449300  0.9073000  0.9535700    0.00000       Uiso       1.00
      H522          H  0.1540100  0.7771100  0.5533400    0.00000       Uiso       1.00
      H523          H  0.7647500  0.6490700  0.3359000    0.00000       Uiso       1.00
      H524          H  0.7571500  0.6803000  0.1419400    0.00000       Uiso       1.00
      H525          H  0.7600200  0.6948900  0.4091300    0.00000       Uiso       1.00
      H526          H  0.7891100  0.4165700  0.0558800    0.00000       Uiso       1.00
      H527          H  0.8420500  0.4928600  0.0411000    0.00000       Uiso       1.00
      H528          H  0.7406600  0.5215300  0.0404500    0.00000       Uiso       1.00
      H529          H  0.6878000  0.4453000  0.0602500    0.00000       Uiso       1.00
      H530          H  0.7770500  0.5700200  0.0705700    0.00000       Uiso       1.00
      H531          H  0.9374000  0.7104700  0.0707500    0.00000       Uiso       1.00
      H532          H  0.7540200  0.3659000  0.0781700    0.00000       Uiso       1.00
      H533          H  0.4086300 -0.0163500  0.5957100    0.00000       Uiso       1.00
      H534          H  0.4053600  0.0173700  0.4004600    0.00000       Uiso       1.00
      H535          H  0.4065300  0.0309500  0.6682800    0.00000       Uiso       1.00
      H536          H  0.4462700  0.7499500  0.4174900    0.00000       Uiso       1.00
      H537          H  0.4938600  0.8275300  0.3925800    0.00000       Uiso       1.00
      H538          H  0.3849400  0.8445700  0.3835900    0.00000       Uiso       1.00
      H539          H  0.3374500  0.7672700  0.4212600    0.00000       Uiso       1.00
      H540          H  0.4202400  0.8968900  0.3677500    0.00000       Uiso       1.00
      H541          H  0.5825500  0.0358200  0.4047200    0.00000       Uiso       1.00
      H542          H  0.4134200  0.6967900  0.4245300    0.00000       Uiso       1.00
      H543          H  0.0980100  0.3164900  1.0430400    0.00000       Uiso       1.00
      H544          H  0.0872100  0.3464200  0.8545899    0.00000       Uiso       1.00
      H545          H  0.0967500  0.3641000  1.1181400    0.00000       Uiso       1.00
      H546          H  0.1184300  0.0831600  0.7193900    0.00000       Uiso       1.00
      H547          H  0.1682100  0.1599200  0.6737401    0.00000       Uiso       1.00
      H548          H  0.0624500  0.1815100  0.6365400    0.00000       Uiso       1.00
      H549          H  0.0127400  0.1053100  0.6948701    0.00000       Uiso       1.00
      H550          H  0.0996400  0.2343400  0.6723900    0.00000       Uiso       1.00
      H551          H  0.2626200  0.3723200  0.6699700    0.00000       Uiso       1.00
      H552          H  0.0842300  0.0305200  0.7399300    0.00000       Uiso       1.00
      H553          H  0.9736300  1.8982000  0.8324300    0.00000       Uiso       1.00
      H554          H  0.9415900  1.9120600  0.9937700    0.00000       Uiso       1.00
      H555          H  0.9015100  1.8619100  0.9846601    0.00000       Uiso       1.00
      H556          H  0.8453700  1.8636800  0.6956899    0.00000       Uiso       1.00
      H557          H  0.8319500  1.8329800  0.9324500    0.00000       Uiso       1.00
      H558          H  0.8755800  1.7932900  0.4750400    0.00000       Uiso       1.00
      H559          H  0.9071800  1.8050700  0.8949700    0.00000       Uiso       1.00
      H560          H  0.9332800  1.8347400  0.6625600    0.00000       Uiso       1.00
      H561          H  0.8127700  1.6688200  0.8765400    0.00000       Uiso       1.00
      H562          H  0.7963900  1.6732301  0.6211100    0.00000       Uiso       1.00
      H563          H  0.7615100  1.6651400  0.8385500    0.00000       Uiso       1.00
      H564          H  0.7375700  1.7200300  0.7891600    0.00000       Uiso       1.00
      H565          H  0.7161400  1.6975200  0.5412200    0.00000       Uiso       1.00
      H566          H  0.6813800  1.6988900  0.7395400    0.00000       Uiso       1.00
      H567          H  0.6714500  1.7414300  0.8033500    0.00000       Uiso       1.00
      H568          H  0.6752800  1.7757200  0.5926700    0.00000       Uiso       1.00
      H569          H  0.7120800  1.7974200  0.8035100    0.00000       Uiso       1.00
      H570          H  0.7232900  1.7345200  0.3012700    0.00000       Uiso       1.00
      H571          H  0.7345400  1.7892700  0.3081700    0.00000       Uiso       1.00
      H572          H  0.6805900  1.7458000  0.3527300    0.00000       Uiso       1.00
      H573          H  0.3624900 -0.2403700  2.0726399    0.00000       Uiso       1.00
      H574          H  0.4088700 -0.2459400  2.1064501    0.00000       Uiso       1.00
      H575          H  0.4085700 -0.1897500  2.0958600    0.00000       Uiso       1.00
      H576          H  0.4781900 -0.1708700  1.7971400    0.00000       Uiso       1.00
      H577          H  0.4789900 -0.1625100  2.0721400    0.00000       Uiso       1.00
      H578          H  0.4462400 -0.1103900  1.6365300    0.00000       Uiso       1.00
      H579          H  0.3797000 -0.1563100  1.9392500    0.00000       Uiso       1.00
      H580          H  0.3880800 -0.1732400  1.6891400    0.00000       Uiso       1.00
      H581          H  0.4269500 -0.0298500  2.1318800    0.00000       Uiso       1.00
      H582          H  0.4368700 -0.0110100  1.8692200    0.00000       Uiso       1.00
      H583          H  0.4790000  0.0136000  2.0555501    0.00000       Uiso       1.00
      H584          H  0.6097100 -0.0307400  1.5754000    0.00000       Uiso       1.00
      H585          H  0.6395600 -0.0243400  1.8061500    0.00000       Uiso       1.00
      H586          H  0.5907800 -0.0218700  1.8184199    0.00000       Uiso       1.00
      H587          H  0.6343900 -0.0948400  1.7436301    0.00000       Uiso       1.00
      H588          H  0.5928300 -0.1304500  1.9207500    0.00000       Uiso       1.00
      H589          H  0.6292500 -0.0756800  1.9928501    0.00000       Uiso       1.00
      H590          H  0.5740700 -0.1325900  1.5694500    0.00000       Uiso       1.00
      H591          H  0.5816700 -0.0837900  1.4531299    0.00000       Uiso       1.00
      H592          H  0.5311700 -0.1204600  1.5759300    0.00000       Uiso       1.00
      H593          H  0.7100400  0.4261800  1.7836699    0.00000       Uiso       1.00
      H594          H  0.7529400  0.4237100  1.6523201    0.00000       Uiso       1.00
      H595          H  0.7210000  0.4769300  1.7312000    0.00000       Uiso       1.00
      H596          H  0.7937600  0.4923600  1.4526501    0.00000       Uiso       1.00
      H597          H  0.7913400  0.4980500  1.7285399    0.00000       Uiso       1.00
      H598          H  0.7688300  0.5681100  1.3209599    0.00000       Uiso       1.00
      H599          H  0.6938000  0.5073500  1.5230699    0.00000       Uiso       1.00
      H600          H  0.7168300  0.4978400  1.2937001    0.00000       Uiso       1.00
      H601          H  0.7009900  0.5618900  2.0498400    0.00000       Uiso       1.00
      H602          H  0.7043900  0.5933500  1.8274601    0.00000       Uiso       1.00
      H603          H  0.7492300  0.6122700  1.9986300    0.00000       Uiso       1.00
      H604          H  0.9525301  0.5741600  1.5818800    0.00000       Uiso       1.00
      H605          H  0.9105800  0.5261300  1.7028298    0.00000       Uiso       1.00
      H606          H  0.9261000  0.5779100  1.8118800    0.00000       Uiso       1.00
      H607          H  0.8771800  0.5003000  1.4758700    0.00000       Uiso       1.00
      H608          H  0.8734200  0.5295000  1.2597299    0.00000       Uiso       1.00
      H609          H  0.8317700  0.5082900  1.4548200    0.00000       Uiso       1.00
      H610          H  0.8925800  0.5942900  1.2620699    0.00000       Uiso       1.00
      H611          H  0.9430300  0.6010400  1.3475800    0.00000       Uiso       1.00
      H612          H  0.9197600  0.6293000  1.4747400    0.00000       Uiso       1.00
      H613          H  0.6378900  1.2427300  1.2780900    0.00000       Uiso       1.00
      H614          H  0.5926700  1.2504300  1.2467901    0.00000       Uiso       1.00
      H615          H  0.6075700  1.1915801  1.2480900    0.00000       Uiso       1.00
      H616          H  0.5335500  1.1828901  1.0172000    0.00000       Uiso       1.00
      H617          H  0.5385200  1.1717200  1.2837200    0.00000       Uiso       1.00
      H618          H  0.5500100  1.1143600  0.7923099    0.00000       Uiso       1.00
      H619          H  0.6252700  1.1538100  1.0421300    0.00000       Uiso       1.00
      H620          H  0.6127800  1.1743400  0.8155200    0.00000       Uiso       1.00
      H621          H  0.6033000  1.0463400  0.9130900    0.00000       Uiso       1.00
      H622          H  0.5945400  1.0333500  1.1834900    0.00000       Uiso       1.00
      H623          H  0.6473200  1.0719800  1.0890800    0.00000       Uiso       1.00
      H624          H  0.4135100  1.0307100  1.2278399    0.00000       Uiso       1.00
      H625          H  0.3922800  1.0328600  0.9813100    0.00000       Uiso       1.00
      H626          H  0.3640000  1.0316600  1.2143600    0.00000       Uiso       1.00
      H627          H  0.3799900  1.0767200  1.4103400    0.00000       Uiso       1.00
      H628          H  0.3781000  1.1134100  1.2281500    0.00000       Uiso       1.00
      H629          H  0.4238400  1.1312200  1.3924900    0.00000       Uiso       1.00
      H630          H  0.4280000  1.0944099  0.8259700    0.00000       Uiso       1.00
      H631          H  0.4384000  1.1435400  0.9495100    0.00000       Uiso       1.00
      H632          H  0.3840000  1.1001500  0.9230500    0.00000       Uiso       1.00
      H633          H  1.3038599  1.5620199  1.4748800    0.00000       Uiso       1.00
      H634          H  1.2686300  1.5714999  1.6372700    0.00000       Uiso       1.00
      H635          H  1.2258000  1.5264100  1.6047901    0.00000       Uiso       1.00
      H636          H  1.1819201  1.5395200  1.2830100    0.00000       Uiso       1.00
      H637          H  1.1593699  1.5064900  1.5110400    0.00000       Uiso       1.00
      H638          H  1.1953800  1.4453200  1.1235300    0.00000       Uiso       1.00
      H639          H  1.2347100  1.4718000  1.5076400    0.00000       Uiso       1.00
      H640          H  1.2561500  1.4981800  1.2628700    0.00000       Uiso       1.00
      H641          H  1.1183701  1.3556300  1.6315000    0.00000       Uiso       1.00
      H642          H  1.0849400  1.3552600  1.4264500    0.00000       Uiso       1.00
      H643          H  1.0786999  1.3712200  1.6817200    0.00000       Uiso       1.00
      H644          H  1.0659000  1.3948600  1.3342400    0.00000       Uiso       1.00
      H645          H  1.0417200  1.3762600  1.0863800    0.00000       Uiso       1.00
      H646          H  1.0103700  1.3791000  1.2978899    0.00000       Uiso       1.00
      H647          H  1.0055799  1.4233800  1.3804899    0.00000       Uiso       1.00
      H648          H  1.0086600  1.4576700  1.1713500    0.00000       Uiso       1.00
      H649          H  1.0473000  1.4789600  1.3749501    0.00000       Uiso       1.00
      H650          H  1.0583500  1.4206200  0.8591400    0.00000       Uiso       1.00
      H651          H  1.0686400  1.4747500  0.8899300    0.00000       Uiso       1.00
      H652          H  1.0146800  1.4301600  0.9159900    0.00000       Uiso       1.00
      H653          H  0.0367200  0.0964600  1.3930100    0.00000       Uiso       1.00
      H654          H  0.0845600  0.0929900  1.3631399    0.00000       Uiso       1.00
      H655          H  0.0746000  0.1484800  1.3573400    0.00000       Uiso       1.00
      H656          H  0.1397500  0.1570900  1.0449100    0.00000       Uiso       1.00
      H657          H  0.1432300  0.1647500  1.3211100    0.00000       Uiso       1.00
      H658          H  0.1167600  0.2355800  0.9384900    0.00000       Uiso       1.00
      H659          H  0.0445900  0.1775000  1.1599700    0.00000       Uiso       1.00
      H660          H  0.0638600  0.1659600  0.9230800    0.00000       Uiso       1.00
      H661          H  0.0995100  0.2926600  1.4865100    0.00000       Uiso       1.00
      H662          H  0.1032700  0.3222800  1.2563601    0.00000       Uiso       1.00
      H663          H  0.1489200  0.3409400  1.4220700    0.00000       Uiso       1.00
      H664          H  0.2821000  0.3006200  0.8745100    0.00000       Uiso       1.00
      H665          H  0.3085700  0.3024300  1.1109700    0.00000       Uiso       1.00
      H666          H  0.2603600  0.3059800  1.1168400    0.00000       Uiso       1.00
      H667          H  0.3009000  0.2296200  1.0309200    0.00000       Uiso       1.00
      H668          H  0.2576500  0.1958200  1.2050101    0.00000       Uiso       1.00
      H669          H  0.2960400  0.2500200  1.2772400    0.00000       Uiso       1.00
      H670          H  0.2479100  0.2003600  0.8300700    0.00000       Uiso       1.00
      H671          H  0.2550800  0.2503900  0.7321000    0.00000       Uiso       1.00
      H672          H  0.2035800  0.2103600  0.8339099    0.00000       Uiso       1.00
