data_DTP-ANDI-COF
_audit_creation_date              0000-00-00
_audit_creation_method            'LanYouShi'
_symmetry_space_group_name_H-M    'P1'
_cell_length_a                    52.5629997
_cell_length_b                    52.5519981
_cell_length_c                    3.5999999
_cell_angle_alpha                 90.0000000
_cell_angle_beta                  90.0000000
_cell_angle_gamma                 119.9736023
loop_
_atom_site_label
_atom_site_type_symbol
_atom_site_fract_x
_atom_site_fract_y
_atom_site_fract_z
_atom_site_U_iso_or_equiv
_atom_site_adp_type
_atom_site_occupancy
        C1          C  0.5271980  0.4999190  1.3948309    0.00000       Uiso       1.00
        C2          C  0.5271810  0.5272650  1.4008230    0.00000       Uiso       1.00
        C3          C  0.5547320  0.5540130  1.4064411    0.00000       Uiso       1.00
        C4          C  0.5807170  0.5532980  1.4065020    0.00000       Uiso       1.00
        C5          C  0.5807300  0.5274130  1.3980139    0.00000       Uiso       1.00
        C6          C  0.5547580  0.5007270  1.3904470    0.00000       Uiso       1.00
        O7          O  0.6087420  0.5310970  1.3938299    0.00000       Uiso       1.00
        B8          B  0.6263780  0.5631870  1.4014690    0.00000       Uiso       1.00
        O9          O  0.6087190  0.5776260  1.4091090    0.00000       Uiso       1.00
       C10          C  0.5000780  0.4727920  1.3911480    0.00000       Uiso       1.00
       C11          C  0.4727490  0.4728030  1.3769341    0.00000       Uiso       1.00
       C12          C  0.4992570  0.4452320  1.4035720    0.00000       Uiso       1.00
       C13          C  0.4725820  0.4192490  1.3957940    0.00000       Uiso       1.00
       C14          C  0.4467160  0.4192550  1.3795230    0.00000       Uiso       1.00
       C15          C  0.4460090  0.4452440  1.3715581    0.00000       Uiso       1.00
       O16          O  0.4223920  0.3912470  1.3780220    0.00000       Uiso       1.00
       B17          B  0.4368120  0.3735920  1.3953069    0.00000       Uiso       1.00
       O18          O  0.4688870  0.3912370  1.4072880    0.00000       Uiso       1.00
       C19          C  0.5000470  0.5272620  1.3957450    0.00000       Uiso       1.00
       C20          C  0.4727550  0.4999470  1.3738559    0.00000       Uiso       1.00
       C21          C  0.4460710  0.5008070  1.3514090    0.00000       Uiso       1.00
       C22          C  0.4467380  0.5274810  1.3613189    0.00000       Uiso       1.00
       C23          C  0.4725210  0.5532960  1.3921840    0.00000       Uiso       1.00
       C24          C  0.4991740  0.5539720  1.4099070    0.00000       Uiso       1.00
       O25          O  0.4687950  0.5776020  1.4004780    0.00000       Uiso       1.00
       B26          B  0.4367980  0.5632310  1.3698870    0.00000       Uiso       1.00
       O27          O  0.4224520  0.5312000  1.3446029    0.00000       Uiso       1.00
       H28          H  0.5571190  0.5755500  1.4065490    0.00000       Uiso       1.00
       H29          H  0.5571480  0.4815980  1.3766500    0.00000       Uiso       1.00
       H30          H  0.5183640  0.4428530  1.4238340    0.00000       Uiso       1.00
       H31          H  0.4244810  0.4428570  1.3656950    0.00000       Uiso       1.00
       H32          H  0.4246400  0.4817320  1.3245840    0.00000       Uiso       1.00
       H33          H  0.5182230  0.5754300  1.4360170    0.00000       Uiso       1.00
       C34          C  0.1394240  0.8334260  1.4037970    0.00000       Uiso       1.00
       C35          C  0.1394400  0.8060890  1.3918320    0.00000       Uiso       1.00
       C36          C  0.1118900  0.7793360  1.3889340    0.00000       Uiso       1.00
       C37          C  0.0859050  0.7800380  1.3979920    0.00000       Uiso       1.00
       C38          C  0.0858920  0.8059230  1.4065040    0.00000       Uiso       1.00
       C39          C  0.1118640  0.8326179  1.4079330    0.00000       Uiso       1.00
       O40          O  0.0578800  0.8022410  1.4091001    0.00000       Uiso       1.00
       B41          B  0.0402430  0.7701510  1.4014610    0.00000       Uiso       1.00
       O42          O  0.0579030  0.7557120  1.3938220    0.00000       Uiso       1.00
       C43          C  0.1665440  0.8605511  1.4090190    0.00000       Uiso       1.00
       C44          C  0.1938730  0.8605970  1.3858420    0.00000       Uiso       1.00
       C45          C  0.1673650  0.8880450  1.4392470    0.00000       Uiso       1.00
       C46          C  0.1940400  0.9140390  1.4397720    0.00000       Uiso       1.00
       C47          C  0.2199060  0.9140960  1.4150250    0.00000       Uiso       1.00
       C48          C  0.2206130  0.8881581  1.3897800    0.00000       Uiso       1.00
       O49          O  0.2442300  0.9420930  1.4239200    0.00000       Uiso       1.00
       B50          B  0.2298090  0.9596699  1.4575070    0.00000       Uiso       1.00
       O51          O  0.1977350  0.9419891  1.4684240    0.00000       Uiso       1.00
       C52          C  0.1665750  0.8061210  1.3778560    0.00000       Uiso       1.00
       C53          C  0.1938670  0.8334900  1.3649560    0.00000       Uiso       1.00
       C54          C  0.2205510  0.8327130  1.3332100    0.00000       Uiso       1.00
       C55          C  0.2198840  0.8060360  1.3258250    0.00000       Uiso       1.00
       C56          C  0.1941000  0.7801390  1.3481801    0.00000       Uiso       1.00
       C57          C  0.1674480  0.7793950  1.3741890    0.00000       Uiso       1.00
       O58          O  0.1978260  0.7558340  1.3392930    0.00000       Uiso       1.00
       B59          B  0.2298240  0.7703010  1.3076620    0.00000       Uiso       1.00
       O60          O  0.2441700  0.8023840  1.2987150    0.00000       Uiso       1.00
       H61          H  0.1095020  0.7578200  1.3756920    0.00000       Uiso       1.00
       H62          H  0.1094730  0.8517689  1.4074860    0.00000       Uiso       1.00
       H63          H  0.1482580  0.8903490  1.4673190    0.00000       Uiso       1.00
       H64          H  0.2421400  0.8905720  1.3784250    0.00000       Uiso       1.00
       H65          H  0.2419810  0.8518630  1.3118960    0.00000       Uiso       1.00
       H66          H  0.1483990  0.7578680  1.3924429    0.00000       Uiso       1.00
       C67          C  0.8488970  0.6744640  1.4014651    0.00000       Uiso       1.00
       C68          C  0.8488750  0.7198900  1.4163810    0.00000       Uiso       1.00
       C69          C  0.8489200  0.6290370  1.3865490    0.00000       Uiso       1.00
       C70          C  0.8644260  0.7049459  1.4089220    0.00000       Uiso       1.00
       C71          C  0.8953870  0.7204290  1.4089220    0.00000       Uiso       1.00
       C72          C  0.8644490  0.6595230  1.3940070    0.00000       Uiso       1.00
       C73          C  0.8954100  0.6750060  1.3940070    0.00000       Uiso       1.00
       C74          C  0.9437750  0.7219100  1.4014630    0.00000       Uiso       1.00
       C75          C  0.9603650  0.7529230  1.4089210    0.00000       Uiso       1.00
       C76          C  0.9911600  0.7683230  1.4089200    0.00000       Uiso       1.00
       C77          C  0.9603870  0.7075000  1.3940060    0.00000       Uiso       1.00
       C78          C  0.9911820  0.7229000  1.3940049    0.00000       Uiso       1.00
       C79          C  0.0071090  0.7535820  1.4014620    0.00000       Uiso       1.00
       O80          O  0.9084240  0.7478930  1.4157970    0.00000       Uiso       1.00
       O81          O  0.9084670  0.6605920  1.3871310    0.00000       Uiso       1.00
       N82          N  0.9111540  0.7055970  1.4014641    0.00000       Uiso       1.00
       H83          H  0.8608021  0.7437631  1.4222602    0.00000       Uiso       1.00
       H84          H  0.9492710  0.7656900  1.4149330    0.00000       Uiso       1.00
       H85          H  0.0030880  0.7921960  1.4147990    0.00000       Uiso       1.00
       H86          H  0.8608650  0.6171020  1.3806700    0.00000       Uiso       1.00
       H87          H  0.9493120  0.6836470  1.3879930    0.00000       Uiso       1.00
       H88          H  0.0031280  0.7109650  1.3881260    0.00000       Uiso       1.00
       C89          C  0.8177240  0.6588750  1.4014660    0.00000       Uiso       1.00
       C90          C  0.8177470  0.6134480  1.3865490    0.00000       Uiso       1.00
       C91          C  0.8177020  0.7043009  1.4163820    0.00000       Uiso       1.00
       C92          C  0.8021950  0.6283920  1.3940080    0.00000       Uiso       1.00
       C93          C  0.7712340  0.6129090  1.3940090    0.00000       Uiso       1.00
       C94          C  0.8021730  0.6738150  1.4089240    0.00000       Uiso       1.00
       C95          C  0.7712110  0.6583320  1.4089240    0.00000       Uiso       1.00
       C96          C  0.7228460  0.6114280  1.4014670    0.00000       Uiso       1.00
       C97          C  0.7062560  0.5804150  1.3940099    0.00000       Uiso       1.00
       C98          C  0.6754610  0.5650150  1.3940111    0.00000       Uiso       1.00
       C99          C  0.7062340  0.6258380  1.4089251    0.00000       Uiso       1.00
      C100          C  0.6754390  0.6104380  1.4089260    0.00000       Uiso       1.00
      C101          C  0.6595120  0.5797570  1.4014690    0.00000       Uiso       1.00
      O102          O  0.7581970  0.5854450  1.3871340    0.00000       Uiso       1.00
      O103          O  0.7581540  0.6727470  1.4158000    0.00000       Uiso       1.00
      N104          N  0.7554670  0.6277420  1.4014670    0.00000       Uiso       1.00
      H105          H  0.8058190  0.5895750  1.3806710    0.00000       Uiso       1.00
      H106          H  0.7173500  0.5676480  1.3879980    0.00000       Uiso       1.00
      H107          H  0.6635340  0.5411420  1.3881320    0.00000       Uiso       1.00
      H108          H  0.8057560  0.7162360  1.4222610    0.00000       Uiso       1.00
      H109          H  0.7173090  0.6496910  1.4149371    0.00000       Uiso       1.00
      H110          H  0.6634940  0.6223730  1.4148051    0.00000       Uiso       1.00
      C111          C  0.3255160  0.6745640  1.3364310    0.00000       Uiso       1.00
      C112          C  0.2802720  0.6292630  1.2818820    0.00000       Uiso       1.00
      C113          C  0.3707600  0.7198650  1.3909810    0.00000       Uiso       1.00
      C114          C  0.2951240  0.6596910  1.3068219    0.00000       Uiso       1.00
      C115          C  0.2796400  0.6751820  1.3021671    0.00000       Uiso       1.00
      C116          C  0.3403640  0.7049880  1.3613681    0.00000       Uiso       1.00
      C117          C  0.3248810  0.7204790  1.3567131    0.00000       Uiso       1.00
      C118          C  0.2780680  0.7220351  1.3221661    0.00000       Uiso       1.00
      C119          C  0.2471450  0.7076920  1.2923971    0.00000       Uiso       1.00
      C120          C  0.2317440  0.7231000  1.2877680    0.00000       Uiso       1.00
      C121          C  0.2923850  0.7529889  1.3469430    0.00000       Uiso       1.00
      C122          C  0.2769850  0.7683970  1.3423131    0.00000       Uiso       1.00
      C123          C  0.2463940  0.7537220  1.3126440    0.00000       Uiso       1.00
      O124          O  0.2522600  0.6608280  1.2750610    0.00000       Uiso       1.00
      O125          O  0.3392110  0.7478880  1.3798960    0.00000       Uiso       1.00
      N126          N  0.2943810  0.7057129  1.3270710    0.00000       Uiso       1.00
      H127          H  0.2564710  0.6173810  1.2585870    0.00000       Uiso       1.00
      H128          H  0.2344520  0.6838860  1.2720760    0.00000       Uiso       1.00
      H129          H  0.2079430  0.7112170  1.2644730    0.00000       Uiso       1.00
      H130          H  0.3826230  0.7436920  1.4106861    0.00000       Uiso       1.00
      H131          H  0.3161660  0.7657030  1.3705980    0.00000       Uiso       1.00
      H132          H  0.2888480  0.7922240  1.3620180    0.00000       Uiso       1.00
      C133          C  0.3411060  0.6589670  1.3411180    0.00000       Uiso       1.00
      C134          C  0.3863490  0.7042680  1.3956681    0.00000       Uiso       1.00
      C135          C  0.2958620  0.6136670  1.2865690    0.00000       Uiso       1.00
      C136          C  0.3714980  0.6738410  1.3707280    0.00000       Uiso       1.00
      C137          C  0.3869810  0.6583500  1.3753830    0.00000       Uiso       1.00
      C138          C  0.3262570  0.6285430  1.3161820    0.00000       Uiso       1.00
      C139          C  0.3417410  0.6130520  1.3208370    0.00000       Uiso       1.00
      C140          C  0.3885540  0.6114970  1.3553830    0.00000       Uiso       1.00
      C141          C  0.4194770  0.6258390  1.3851520    0.00000       Uiso       1.00
      C142          C  0.4348770  0.6104320  1.3897820    0.00000       Uiso       1.00
      C143          C  0.3742360  0.5805420  1.3306061    0.00000       Uiso       1.00
      C144          C  0.3896370  0.5651340  1.3352370    0.00000       Uiso       1.00
      C145          C  0.4202270  0.5798090  1.3649060    0.00000       Uiso       1.00
      O146          O  0.4143610  0.6727030  1.4024889    0.00000       Uiso       1.00
      O147          O  0.3274110  0.5856430  1.2976540    0.00000       Uiso       1.00
      N148          N  0.3722400  0.6278180  1.3504790    0.00000       Uiso       1.00
      H149          H  0.4101510  0.7161500  1.4189630    0.00000       Uiso       1.00
      H150          H  0.4321700  0.6496450  1.4054731    0.00000       Uiso       1.00
      H151          H  0.4586790  0.6223140  1.4130770    0.00000       Uiso       1.00
      H152          H  0.2839990  0.5898400  1.2668630    0.00000       Uiso       1.00
      H153          H  0.3504560  0.5678280  1.3069520    0.00000       Uiso       1.00
      H154          H  0.3777740  0.5413070  1.3155310    0.00000       Uiso       1.00
      C155          C  0.3255150  0.1510420  1.4287500    0.00000       Uiso       1.00
      C156          C  0.3709080  0.1510320  1.4573220    0.00000       Uiso       1.00
      C157          C  0.2801230  0.1510520  1.4001770    0.00000       Uiso       1.00
      C158          C  0.3404370  0.1354950  1.4453710    0.00000       Uiso       1.00
      C159          C  0.3249510  0.1045290  1.4500240    0.00000       Uiso       1.00
      C160          C  0.2950480  0.1355050  1.4168000    0.00000       Uiso       1.00
      C161          C  0.2795620  0.1045390  1.4214531    0.00000       Uiso       1.00
      C162          C  0.2780600  0.0561510  1.4430090    0.00000       Uiso       1.00
      C163          C  0.2924520  0.0395430  1.4597890    0.00000       Uiso       1.00
      C164          C  0.2770490  0.0087440  1.4644181    0.00000       Uiso       1.00
      C165          C  0.2470620  0.0395530  1.4312190    0.00000       Uiso       1.00
      C166          C  0.2316600  0.0087530  1.4358470    0.00000       Uiso       1.00
      C167          C  0.2463820  0.9928080  1.4525280    0.00000       Uiso       1.00
      O168          O  0.3393490  0.0914760  1.4651550    0.00000       Uiso       1.00
      O169          O  0.2521130  0.0914950  1.4102440    0.00000       Uiso       1.00
      N170          N  0.2943760  0.0887770  1.4381059    0.00000       Uiso       1.00
      H171          H  0.3828280  0.1390910  1.4703780    0.00000       Uiso       1.00
      H172          H  0.3162920  0.0506250  1.4696400    0.00000       Uiso       1.00
      H173          H  0.2889690  0.9968020  1.4774731    0.00000       Uiso       1.00
      H174          H  0.2562620  0.1391180  1.3907100    0.00000       Uiso       1.00
      H175          H  0.2343100  0.0506420  1.4180360    0.00000       Uiso       1.00
      H176          H  0.2077980  0.9968190  1.4263790    0.00000       Uiso       1.00
      C177          C  0.3411070  0.1822190  1.4240650    0.00000       Uiso       1.00
      C178          C  0.2957150  0.1822290  1.3954920    0.00000       Uiso       1.00
      C179          C  0.3865000  0.1822100  1.4526371    0.00000       Uiso       1.00
      C180          C  0.3261850  0.1977670  1.4074440    0.00000       Uiso       1.00
      C181          C  0.3416710  0.2287320  1.4027910    0.00000       Uiso       1.00
      C182          C  0.3715740  0.1977570  1.4360150    0.00000       Uiso       1.00
      C183          C  0.3870600  0.2287230  1.4313610    0.00000       Uiso       1.00
      C184          C  0.3885620  0.2771100  1.4098060    0.00000       Uiso       1.00
      C185          C  0.3741710  0.2937190  1.3930250    0.00000       Uiso       1.00
      C186          C  0.3895740  0.3245180  1.3883970    0.00000       Uiso       1.00
      C187          C  0.4195600  0.2937090  1.4215962    0.00000       Uiso       1.00
      C188          C  0.4349630  0.3245080  1.4169680    0.00000       Uiso       1.00
      C189          C  0.4202400  0.3404530  1.4002870    0.00000       Uiso       1.00
      O190          O  0.3272730  0.2417850  1.3876590    0.00000       Uiso       1.00
      O191          O  0.4145100  0.2417670  1.4425710    0.00000       Uiso       1.00
      N192          N  0.3722460  0.2444850  1.4147080    0.00000       Uiso       1.00
      H193          H  0.2837940  0.1941710  1.3824371    0.00000       Uiso       1.00
      H194          H  0.3503300  0.2826360  1.3831739    0.00000       Uiso       1.00
      H195          H  0.3776530  0.3364600  1.3753411    0.00000       Uiso       1.00
      H196          H  0.4103610  0.1941440  1.4621050    0.00000       Uiso       1.00
      H197          H  0.4323130  0.2826190  1.4347790    0.00000       Uiso       1.00
      H198          H  0.4588240  0.3364430  1.4264350    0.00000       Uiso       1.00
