data_EB-COF-F
_audit_creation_date              0000-00-00
_audit_creation_method            'LanYouShi'
_symmetry_space_group_name_H-M    'P1'
_cell_length_a                    3.5999999
_cell_length_b                    29.2140007
_cell_length_c                    29.2140007
_cell_angle_alpha                 120.0000000
_cell_angle_beta                  90.0000000
_cell_angle_gamma                 90.0000000
loop_
_atom_site_label
_atom_site_type_symbol
_atom_site_fract_x
_atom_site_fract_y
_atom_site_fract_z
_atom_site_U_iso_or_equiv
_atom_site_adp_type
_atom_site_occupancy
        N1          N -0.3888890  0.4372640 -0.1898300    0.00000       Uiso       1.00
        N2          N -0.3888890  0.6109740  0.1886680    0.00000       Uiso       1.00
        N3          N -0.3888890  0.3729050 -0.4372630    0.00000       Uiso       1.00
        N4          N -0.3888890  0.5776950  0.3890280    0.00000       Uiso       1.00
        N5          N -0.3888890  0.1898320 -0.3729040    0.00000       Uiso       1.00
        N6          N -0.3888890  0.8113330  0.4223070    0.00000       Uiso       1.00
        C7          C -0.3888890  0.3844470 -0.2221380    0.00000       Uiso       1.00
        C8          C -0.3888890  0.4640210 -0.1367880    0.00000       Uiso       1.00
        C9          C -0.3888890  0.4381930 -0.1082190    0.00000       Uiso       1.00
       C10          C -0.3888890  0.4683100 -0.0546750    0.00000       Uiso       1.00
       C11          C -0.3888890  0.5249560 -0.0268510    0.00000       Uiso       1.00
       C12          C -0.3888890  0.5554681 -0.0535700    0.00000       Uiso       1.00
       C13          C -0.3888890  0.5194840 -0.1095790    0.00000       Uiso       1.00
       C14          C -0.3888890  0.6581750  0.2320280    0.00000       Uiso       1.00
       C15          C -0.3888890  0.5953700  0.1377180    0.00000       Uiso       1.00
       C16          C -0.3888890  0.6261420  0.1134310    0.00000       Uiso       1.00
       C17          C -0.3888890  0.6057650  0.0575690    0.00000       Uiso       1.00
       C18          C -0.3888890  0.5495430  0.0283530    0.00000       Uiso       1.00
       C19          C -0.3888890  0.5190470  0.0546870    0.00000       Uiso       1.00
       C20          C -0.3888890  0.5411760  0.1083840    0.00000       Uiso       1.00
       C21          C -0.3888890  0.3934150 -0.3844460    0.00000       Uiso       1.00
       C22          C -0.3888890  0.3991910 -0.4640190    0.00000       Uiso       1.00
       C23          C -0.3888890  0.4535880 -0.4381910    0.00000       Uiso       1.00
       C24          C -0.3888890  0.4770140 -0.4683090    0.00000       Uiso       1.00
       C25          C -0.3888890  0.4481920 -0.5249540    0.00000       Uiso       1.00
       C26          C -0.3888890  0.3909630 -0.5554660    0.00000       Uiso       1.00
       C27          C -0.3888890  0.3709370 -0.5194820    0.00000       Uiso       1.00
       C28          C -0.3888890  0.5738530  0.3418260    0.00000       Uiso       1.00
       C29          C -0.3888890  0.5423480  0.4046310    0.00000       Uiso       1.00
       C30          C -0.3888890  0.4872890  0.3738600    0.00000       Uiso       1.00
       C31          C -0.3888890  0.4518040  0.3942360    0.00000       Uiso       1.00
       C32          C -0.3888890  0.4788100  0.4504590    0.00000       Uiso       1.00
       C33          C -0.3888890  0.5356390  0.4809550    0.00000       Uiso       1.00
       C34          C -0.3888890  0.5672080  0.4588250    0.00000       Uiso       1.00
       C35          C -0.3888890  0.2221390 -0.3934130    0.00000       Uiso       1.00
       C36          C -0.3888890  0.1367900 -0.3991890    0.00000       Uiso       1.00
       C37          C -0.3888890  0.1082210 -0.4535870    0.00000       Uiso       1.00
       C38          C -0.3888890  0.0546770 -0.4770130    0.00000       Uiso       1.00
       C39          C -0.3888890  0.0268530 -0.4481910    0.00000       Uiso       1.00
       C40          C -0.3888890  0.0535710 -0.3909610    0.00000       Uiso       1.00
       C41          C -0.3888890  0.1095810 -0.3709350    0.00000       Uiso       1.00
       C42          C -0.3888890  0.7679740  0.4261490    0.00000       Uiso       1.00
       C43          C -0.3888890  0.8622840  0.4576540    0.00000       Uiso       1.00
       C44          C -0.3888890  0.8865710  0.5127130    0.00000       Uiso       1.00
       C45          C -0.3888890  0.9424320  0.5481970    0.00000       Uiso       1.00
       C46          C -0.3888890  0.9716490  0.5211910    0.00000       Uiso       1.00
       C47          C -0.3888890  0.9453150  0.4643620    0.00000       Uiso       1.00
       C48          C -0.3888890  0.8916180  0.4327940    0.00000       Uiso       1.00
       H49          H -0.3888890  0.3601350 -0.2065240    0.00000       Uiso       1.00
       H50          H -0.3888890  0.4333410 -0.3601330    0.00000       Uiso       1.00
       H51          H -0.3888890  0.2065250 -0.4333400    0.00000       Uiso       1.00
       H52          H -0.3888890  0.3981700 -0.1245320    0.00000       Uiso       1.00
       H53          H -0.3888890  0.4772980 -0.3981680    0.00000       Uiso       1.00
       H54          H -0.3888890  0.1245340 -0.4772960    0.00000       Uiso       1.00
       H55          H -0.3888890  0.4579060 -0.2075090    0.00000       Uiso       1.00
       H56          H -0.3888890  0.3345840 -0.4579050    0.00000       Uiso       1.00
       H57          H -0.3888890  0.2075110 -0.3345830    0.00000       Uiso       1.00
       H58          H -0.3888890  0.5296540 -0.1360290    0.00000       Uiso       1.00
       H59          H -0.3888890  0.3343160 -0.5296530    0.00000       Uiso       1.00
       H60          H -0.3888890  0.1360310 -0.3343150    0.00000       Uiso       1.00
       H61          H -0.3888890  0.4443250 -0.0392200    0.00000       Uiso       1.00
       H62          H -0.3888890  0.5164549 -0.4443230    0.00000       Uiso       1.00
       H63          H -0.3888890  0.0392220 -0.5164540    0.00000       Uiso       1.00
       C64          C -0.3888890  0.6142820 -0.0247650    0.00000       Uiso       1.00
       C65          C -0.3888890  0.3609530 -0.6142810    0.00000       Uiso       1.00
       C66          C -0.3888890  0.0247660 -0.3609520    0.00000       Uiso       1.00
       C67          C -0.3888890  0.3005820 -0.6477190    0.00000       Uiso       1.00
       C68          C -0.3888890  0.2662090 -0.7053390    0.00000       Uiso       1.00
       C69          C -0.3888890  0.2103790 -0.7364451    0.00000       Uiso       1.00
       C70          C -0.3888890  0.1798740 -0.7123720    0.00000       Uiso       1.00
       C71          C -0.3888890  0.2069640 -0.6576370    0.00000       Uiso       1.00
       C72          C -0.3888890  0.2627940 -0.6292260    0.00000       Uiso       1.00
       H73          H -0.3888890  0.1394790 -0.7338471    0.00000       Uiso       1.00
       H74          H -0.3888890  0.1859540 -0.6381450    0.00000       Uiso       1.00
       H75          H -0.3888890  0.2708050 -0.5928460    0.00000       Uiso       1.00
       H76          H -0.3888890  0.2773350  0.2677340    0.00000       Uiso       1.00
       H77          H -0.3888890  0.1915530 -0.7770000    0.00000       Uiso       1.00
       C78          C -0.3888890  0.0516990 -0.3005810    0.00000       Uiso       1.00
       C79          C -0.3888890  0.0284520 -0.2662070    0.00000       Uiso       1.00
       C80          C -0.3888890  0.0531760 -0.2103780    0.00000       Uiso       1.00
       C81          C -0.3888890  0.1077540 -0.1798730    0.00000       Uiso       1.00
       C82          C -0.3888890  0.1353990 -0.2069620    0.00000       Uiso       1.00
       C83          C -0.3888890  0.1079800 -0.2627920    0.00000       Uiso       1.00
       H84          H -0.3888890  0.1266740 -0.1394770    0.00000       Uiso       1.00
       H85          H -0.3888890  0.1759020 -0.1859520    0.00000       Uiso       1.00
       H86          H -0.3888890  0.1363490 -0.2708030    0.00000       Uiso       1.00
       H87          H -0.3888890  0.9903990  0.7226670    0.00000       Uiso       1.00
       H88          H -0.3888890  0.0314470 -0.1915510    0.00000       Uiso       1.00
       C89          C -0.3888890  0.6477200 -0.0516970    0.00000       Uiso       1.00
       C90          C -0.3888890  0.7053400 -0.0284510    0.00000       Uiso       1.00
       C91          C -0.3888890  0.7364460 -0.0531750    0.00000       Uiso       1.00
       C92          C -0.3888890  0.7123740 -0.1077520    0.00000       Uiso       1.00
       C93          C -0.3888890  0.6576380 -0.1353980    0.00000       Uiso       1.00
       C94          C -0.3888890  0.6292270 -0.1079790    0.00000       Uiso       1.00
       H95          H -0.3888890  0.7338490 -0.1266720    0.00000       Uiso       1.00
       H96          H -0.3888890  0.6381460 -0.1759000    0.00000       Uiso       1.00
       H97          H -0.3888890  0.5928470 -0.1363480    0.00000       Uiso       1.00
       H98          H -0.3888890  0.7322670  0.0096020    0.00000       Uiso       1.00
       H99          H -0.3888890  0.7770020 -0.0314450    0.00000       Uiso       1.00
      H100          H -0.3888890  0.6915070  0.2286830    0.00000       Uiso       1.00
      H101          H -0.3888890  0.6637610  0.1398320    0.00000       Uiso       1.00
      H102          H -0.3888890  0.5822660  0.1956350    0.00000       Uiso       1.00
      H103          H -0.3888890  0.5175380  0.1252550    0.00000       Uiso       1.00
      N104          N -0.3888890  0.6359060  0.0321660    0.00000       Uiso       1.00
      H105          H -0.3888890  0.4794100  0.0380230    0.00000       Uiso       1.00
      H106          H -0.1612100  0.7350220  0.1478580    0.00000       Uiso       1.00
      H107          H -0.1556880  0.7058230  0.0544860    0.00000       Uiso       1.00
      H108          H -0.6165680  0.7350220  0.1478580    0.00000       Uiso       1.00
      H109          H -0.6220890  0.7058230  0.0544860    0.00000       Uiso       1.00
      C110          C -0.3888890  0.7371470  0.1261830    0.00000       Uiso       1.00
      C111          C -0.3888890  0.6937430  0.0665410    0.00000       Uiso       1.00
      H112          H -0.3888890  0.7766250  0.1306050    0.00000       Uiso       1.00
      F113          F -0.4989030  0.8530580  0.2349810    0.00000       Uiso       1.00
      H114          H -0.3888890  0.5371750  0.3084940    0.00000       Uiso       1.00
      H115          H -0.3888890  0.4760710  0.3362410    0.00000       Uiso       1.00
      H116          H -0.3888890  0.6133690  0.4177350    0.00000       Uiso       1.00
      H117          H -0.3888890  0.6077170  0.4824630    0.00000       Uiso       1.00
      N118          N -0.3888890  0.3962590  0.3640950    0.00000       Uiso       1.00
      H119          H -0.3888890  0.5586130  0.5205920    0.00000       Uiso       1.00
      H120          H -0.1612100  0.4128350  0.2649790    0.00000       Uiso       1.00
      H121          H -0.1556880  0.3486630  0.2941780    0.00000       Uiso       1.00
      H122          H -0.6165680  0.4128350  0.2649790    0.00000       Uiso       1.00
      H123          H -0.6220890  0.3486630  0.2941780    0.00000       Uiso       1.00
      C124          C -0.3888890  0.3890360  0.2628540    0.00000       Uiso       1.00
      C125          C -0.3888890  0.3727980  0.3062580    0.00000       Uiso       1.00
      H126          H -0.3888890  0.3539800  0.2233770    0.00000       Uiso       1.00
      F127          F -0.5358450  0.3630390  0.1338210    0.00000       Uiso       1.00
      H128          H -0.3888890  0.7713190  0.4628260    0.00000       Uiso       1.00
      H129          H -0.3888890  0.8601700  0.5239310    0.00000       Uiso       1.00
      H130          H -0.3888890  0.8043671  0.3866330    0.00000       Uiso       1.00
      H131          H -0.3888890  0.8747460  0.3922850    0.00000       Uiso       1.00
      N132          N -0.3888890  0.9678360  0.6037420    0.00000       Uiso       1.00
      H133          H -0.3888890  0.9619790  0.4413880    0.00000       Uiso       1.00
      H134          H -0.1612100  0.8521439  0.5871660    0.00000       Uiso       1.00
      H135          H -0.1556880  0.9455150  0.6513390    0.00000       Uiso       1.00
      H136          H -0.6165680  0.8521439  0.5871660    0.00000       Uiso       1.00
      H137          H -0.6220890  0.9455150  0.6513390    0.00000       Uiso       1.00
      C138          C -0.3888890  0.8738190  0.6109660    0.00000       Uiso       1.00
      C139          C -0.3888890  0.9334611  0.6272040    0.00000       Uiso       1.00
      H140          H -0.3888890  0.8693970  0.6460220    0.00000       Uiso       1.00
      F141          F -0.5939040  0.8022080  0.6892390    0.00000       Uiso       1.00
      C142          C -0.3888890  0.6159500  0.2886350    0.00000       Uiso       1.00
      C143          C -0.3888890  0.6609060  0.2817780    0.00000       Uiso       1.00
      C144          C -0.3888890  0.3888000 -0.3043850    0.00000       Uiso       1.00
      C145          C -0.3888890  0.3600790 -0.2773680    0.00000       Uiso       1.00
      C146          C -0.3888890  0.6726840  0.3840510    0.00000       Uiso       1.00
      C147          C -0.3888890  0.6208720  0.3390960    0.00000       Uiso       1.00
      C148          C -0.3888890  0.3068150 -0.3887990    0.00000       Uiso       1.00
      C149          C -0.3888890  0.3625530 -0.3600770    0.00000       Uiso       1.00
      C150          C -0.3888890  0.7113670  0.3273170    0.00000       Uiso       1.00
      C151          C -0.3888890  0.7182240  0.3791300    0.00000       Uiso       1.00
      C152          C -0.3888890  0.3043860 -0.3068130    0.00000       Uiso       1.00
      C153          C -0.3888890  0.2773700 -0.3625510    0.00000       Uiso       1.00
      O154          O -0.3888890  0.5693270  0.2503390    0.00000       Uiso       1.00
      O155          O -0.3888890  0.4385010 -0.2794440    0.00000       Uiso       1.00
      O156          O -0.3888890  0.6810110  0.4306740    0.00000       Uiso       1.00
      O157          O -0.3888890  0.2820550 -0.4384990    0.00000       Uiso       1.00
      O158          O -0.3888890  0.7496630  0.3189900    0.00000       Uiso       1.00
      O159          O -0.3888890  0.2794460 -0.2820530    0.00000       Uiso       1.00
