data_EB-COF-I
_audit_creation_date              0000-00-00
_audit_creation_method            'LanYouShi'
_symmetry_space_group_name_H-M    'P1'
_cell_length_a                    3.5999999
_cell_length_b                    29.2140007
_cell_length_c                    29.2140007
_cell_angle_alpha                 120.0000000
_cell_angle_beta                  90.0000000
_cell_angle_gamma                 90.0000000
loop_
_atom_site_label
_atom_site_type_symbol
_atom_site_fract_x
_atom_site_fract_y
_atom_site_fract_z
_atom_site_U_iso_or_equiv
_atom_site_adp_type
_atom_site_occupancy
        N1          N -0.3783953  0.4781385 -0.1994981    0.00000       Uiso       1.00
        N2          N -0.3783919  0.6376160  0.1893181    0.00000       Uiso       1.00
        N3          N -0.3783937  0.3209098 -0.4813385    0.00000       Uiso       1.00
        N4          N -0.3783922  0.5501348  0.3590755    0.00000       Uiso       1.00
        N5          N -0.3783988  0.1963231 -0.3242048    0.00000       Uiso       1.00
        N6          N -0.3784041  0.8075215  0.4462297    0.00000       Uiso       1.00
        H1          H -0.3783960  0.5017196 -0.2197483    0.00000       Uiso       1.00
        H2          H -0.3783909  0.5963619  0.1816228    0.00000       Uiso       1.00
        H3          H -0.3783938  0.2771781 -0.5062559    0.00000       Uiso       1.00
        H4          H -0.3783928  0.5917796  0.3918535    0.00000       Uiso       1.00
        H5          H -0.3783976  0.2165246 -0.2803760    0.00000       Uiso       1.00
        H6          H -0.3784047  0.8149915  0.4125240    0.00000       Uiso       1.00
        C1          C -0.3783957  0.4233131 -0.2308057    0.00000       Uiso       1.00
        C2          C -0.3783941  0.5033820 -0.1448591    0.00000       Uiso       1.00
        C3          C -0.3783938  0.4744600 -0.1167003    0.00000       Uiso       1.00
        C4          C -0.3783934  0.5008369 -0.0605203    0.00000       Uiso       1.00
        C5          C -0.3783928  0.5586897 -0.0299321    0.00000       Uiso       1.00
        C6          C -0.3783925  0.5914173 -0.0549717    0.00000       Uiso       1.00
        C7          C -0.3783938  0.5605533 -0.1132344    0.00000       Uiso       1.00
        C8          C -0.3783935  0.6786377  0.2397465    0.00000       Uiso       1.00
        C9          C -0.3783910  0.6267086  0.1387801    0.00000       Uiso       1.00
       C10          C -0.3783907  0.6608523  0.1161440    0.00000       Uiso       1.00
       C11          C -0.3783914  0.6398830  0.0584439    0.00000       Uiso       1.00
       C12          C -0.3783913  0.5824715  0.0265643    0.00000       Uiso       1.00
       C13          C -0.3783908  0.5483778  0.0503269    0.00000       Uiso       1.00
       C14          C -0.3783907  0.5707031  0.1064181    0.00000       Uiso       1.00
       C15          C -0.3783951  0.3445027 -0.4264993    0.00000       Uiso       1.00
       C16          C -0.3783921  0.3502129 -0.5066807    0.00000       Uiso       1.00
       C17          C -0.3783916  0.4072896 -0.4778112    0.00000       Uiso       1.00
       C18          C -0.3783913  0.4370385 -0.5042366    0.00000       Uiso       1.00
       C19          C -0.3783910  0.4097317 -0.5620925    0.00000       Uiso       1.00
       C20          C -0.3783908  0.3519664 -0.5947785    0.00000       Uiso       1.00
       C21          C -0.3783917  0.3246121 -0.5638636    0.00000       Uiso       1.00
       C22          C -0.3783932  0.5597084  0.3181676    0.00000       Uiso       1.00
       C23          C -0.3783908  0.5103887  0.3698272    0.00000       Uiso       1.00
       C24          C -0.3783902  0.4536005  0.3356762    0.00000       Uiso       1.00
       C25          C -0.3783903  0.4168723  0.3566648    0.00000       Uiso       1.00
       C26          C -0.3783904  0.4424012  0.4140754    0.00000       Uiso       1.00
       C27          C -0.3783904  0.5002468  0.4481501    0.00000       Uiso       1.00
       C28          C -0.3783904  0.5339958  0.4258187    0.00000       Uiso       1.00
       C29          C -0.3783980  0.2276629 -0.3476883    0.00000       Uiso       1.00
       C30          C -0.3784012  0.1416857 -0.3536588    0.00000       Uiso       1.00
       C31          C -0.3784020  0.1136011 -0.4107388    0.00000       Uiso       1.00
       C32          C -0.3784027  0.0574318 -0.4406168    0.00000       Uiso       1.00
       C33          C -0.3784042  0.0267782 -0.4134254    0.00000       Uiso       1.00
       C34          C -0.3784047  0.0517185 -0.3556652    0.00000       Uiso       1.00
       C35          C -0.3784025  0.1099860 -0.3281913    0.00000       Uiso       1.00
       C36          C -0.3784018  0.7571762  0.4370961    0.00000       Uiso       1.00
       C37          C -0.3784062  0.8581235  0.4857015    0.00000       Uiso       1.00
       C38          C -0.3784067  0.8807362  0.5424549    0.00000       Uiso       1.00
       C39          C -0.3784071  0.9383864  0.5792621    0.00000       Uiso       1.00
       C40          C -0.3784060  0.9703020  0.5537704    0.00000       Uiso       1.00
       C41          C -0.3784066  0.9466064  0.4959065    0.00000       Uiso       1.00
       C42          C -0.3784066  0.8905120  0.4620820    0.00000       Uiso       1.00
        H1          H -0.3783950  0.3976686 -0.2115419    0.00000       Uiso       1.00
        H2          H -0.3783938  0.4294022 -0.1395304    0.00000       Uiso       1.00
        H3          H -0.3783937  0.4769481 -0.0393778    0.00000       Uiso       1.00
        H4          H -0.3783945  0.5854312 -0.1333309    0.00000       Uiso       1.00
        H5          H -0.3783940  0.7210068  0.2476497    0.00000       Uiso       1.00
        H6          H -0.3783899  0.7056060  0.1430560    0.00000       Uiso       1.00
        H7          H -0.3783906  0.5035562  0.0239144    0.00000       Uiso       1.00
        H8          H -0.3783903  0.5447708  0.1253642    0.00000       Uiso       1.00
        H9          H -0.3783960  0.3894163 -0.4009085    0.00000       Uiso       1.00
       H10          H -0.3783915  0.4295572 -0.4327531    0.00000       Uiso       1.00
       H11          H -0.3783913  0.4820714 -0.4803879    0.00000       Uiso       1.00
       H12          H -0.3783922  0.2796349 -0.5887045    0.00000       Uiso       1.00
       H13          H -0.3783931  0.5253350  0.2757499    0.00000       Uiso       1.00
       H14          H -0.3783897  0.4357606  0.2909226    0.00000       Uiso       1.00
       H15          H -0.3783904  0.5186661  0.4929728    0.00000       Uiso       1.00
       H16          H -0.3783901  0.5788715  0.4517740    0.00000       Uiso       1.00
       H17          H -0.3783983  0.2084275 -0.3925940    0.00000       Uiso       1.00
       H18          H -0.3784020  0.1364893 -0.4329080    0.00000       Uiso       1.00
       H19          H -0.3784021  0.0363551 -0.4856454    0.00000       Uiso       1.00
       H20          H -0.3784018  0.1300198 -0.2832212    0.00000       Uiso       1.00
       H21          H -0.3784019  0.7495043  0.4717127    0.00000       Uiso       1.00
       H22          H -0.3784067  0.8538148  0.5602860    0.00000       Uiso       1.00
       H23          H -0.3784072  0.9730694  0.4775544    0.00000       Uiso       1.00
       H24          H -0.3784068  0.8715870  0.4172058    0.00000       Uiso       1.00
        C1          C -0.3783924  0.6501502 -0.0231506    0.00000       Uiso       1.00
        C2          C -0.3783906  0.3250414 -0.6535152    0.00000       Uiso       1.00
        C3          C -0.3784085  0.0198054 -0.3288418    0.00000       Uiso       1.00
        C4          C -0.3783906  0.2651642 -0.6866761    0.00000       Uiso       1.00
        C5          C -0.3783905  0.2337928 -0.7451709    0.00000       Uiso       1.00
        C6          C -0.3783906  0.1759831 -0.7792855    0.00000       Uiso       1.00
        C7          C -0.3783906  0.1451990 -0.7522015    0.00000       Uiso       1.00
        C8          C -0.3783905  0.1709377 -0.6943155    0.00000       Uiso       1.00
        C9          C -0.3783905  0.2291360 -0.6649100    0.00000       Uiso       1.00
        H1          H -0.3783904  0.2546678 -0.7693154    0.00000       Uiso       1.00
        H2          H -0.3783906  0.1576134 -0.8241026    0.00000       Uiso       1.00
        H3          H -0.3783907  0.1001704 -0.7761554    0.00000       Uiso       1.00
        H4          H -0.3783904  0.1459649 -0.6743210    0.00000       Uiso       1.00
        H5          H -0.3783903  0.2459363 -0.6203012    0.00000       Uiso       1.00
        C1          C -0.3784121  0.0464030 -0.2689829    0.00000       Uiso       1.00
        C2          C -0.3784136  0.0191709 -0.2377294    0.00000       Uiso       1.00
        C3          C -0.3784143  0.0427717 -0.1799259    0.00000       Uiso       1.00
        C4          C -0.3784141  0.1006229 -0.1490248    0.00000       Uiso       1.00
        C5          C -0.3784139  0.1328653 -0.1746583    0.00000       Uiso       1.00
        C6          C -0.3784133  0.1041788 -0.2328559    0.00000       Uiso       1.00
        H1          H -0.3784144 -0.0258528 -0.2586934    0.00000       Uiso       1.00
        H2          H -0.3784148  0.0162581 -0.1616308    0.00000       Uiso       1.00
        H3          H -0.3784142  0.1215975 -0.1040007    0.00000       Uiso       1.00
        H4          H -0.3784141  0.1778268 -0.1496104    0.00000       Uiso       1.00
        H5          H -0.3784138  0.1320638 -0.2495658    0.00000       Uiso       1.00
        C1          C -0.3783921  0.6833442 -0.0498366    0.00000       Uiso       1.00
        C2          C -0.3783919  0.7418421 -0.0226870    0.00000       Uiso       1.00
        C3          C -0.3783920  0.7759842 -0.0463537    0.00000       Uiso       1.00
        C4          C -0.3783919  0.7489339 -0.1042209    0.00000       Uiso       1.00
        C5          C -0.3783917  0.6910493 -0.1363916    0.00000       Uiso       1.00
        C6          C -0.3783917  0.6616142 -0.1076266    0.00000       Uiso       1.00
        H1          H -0.3783917  0.7659680  0.0223336    0.00000       Uiso       1.00
        H2          H -0.3783920  0.8207988 -0.0198860    0.00000       Uiso       1.00
        H3          H -0.3783921  0.7729130 -0.1252692    0.00000       Uiso       1.00
        H4          H -0.3783916  0.6710743 -0.1813576    0.00000       Uiso       1.00
        H5          H -0.3783914  0.6170098 -0.1354590    0.00000       Uiso       1.00
        N1          N -0.3783923  0.6713330  0.0336614    0.00000       Uiso       1.00
        C1          C -0.3783948  0.7715704  0.1304302    0.00000       Uiso       1.00
        C2          C -0.3783944  0.7302685  0.0682189    0.00000       Uiso       1.00
        H1          H -0.5276728  0.7534828  0.1520292    0.00000       Uiso       1.00
        H2          H -0.5276732  0.8092533  0.1383466    0.00000       Uiso       1.00
        H3          H -0.0798387  0.7813681  0.1451879    0.00000       Uiso       1.00
        H4          H -0.6166676  0.7439674  0.0522677    0.00000       Uiso       1.00
        H5          H -0.1198383  0.7473220  0.0597317    0.00000       Uiso       1.00
       Br1          I -0.8784385  0.8235065  0.2760893    0.00000       Uiso       1.00
        N1          N -0.3783903  0.3606382  0.3252572    0.00000       Uiso       1.00
        C1          C -0.3783909  0.3571099  0.2249907    0.00000       Uiso       1.00
        C2          C -0.3783908  0.3362343  0.2663198    0.00000       Uiso       1.00
        H1          H -0.5276701  0.3967954  0.2430582    0.00000       Uiso       1.00
        H2          H -0.5276680  0.3273284  0.1873148    0.00000       Uiso       1.00
        H3          H -0.0798347  0.3620621  0.2151867    0.00000       Uiso       1.00
        H4          H -0.6166584  0.3065840  0.2526342    0.00000       Uiso       1.00
        H5          H -0.1198337  0.3106914  0.2492760    0.00000       Uiso       1.00
       Br1          I -0.8783862  0.4511954  0.1734649    0.00000       Uiso       1.00
        N1          N -0.3784084  0.9630056  0.6354845    0.00000       Uiso       1.00
        C1          C -0.3784106  0.8659309  0.6383938    0.00000       Uiso       1.00
        C2          C -0.3784099  0.9282661  0.6597123    0.00000       Uiso       1.00
        H1          H -0.2291325  0.8577582  0.6679863    0.00000       Uiso       1.00
        H2          H -0.2291329  0.8445517  0.5986946    0.00000       Uiso       1.00
        H3          H -0.6769671  0.8511552  0.6333405    0.00000       Uiso       1.00
        H4          H -0.6168833  0.9440777  0.6893359    0.00000       Uiso       1.00
        H5          H -0.1198532  0.9366753  0.6852371    0.00000       Uiso       1.00
       Br1          I -0.8790549  0.8980006  0.7800990    0.00000       Uiso       1.00
        C1          C -0.3783938  0.6190558  0.2803761    0.00000       Uiso       1.00
        C2          C -0.3783946  0.6706378  0.2849364    0.00000       Uiso       1.00
        C3          C -0.3783970  0.3830152 -0.3305270    0.00000       Uiso       1.00
        C4          C -0.3783967  0.3789228 -0.2837171    0.00000       Uiso       1.00
        C5          C -0.3783975  0.6599373  0.3779076    0.00000       Uiso       1.00
        C6          C -0.3783945  0.6129311  0.3262652    0.00000       Uiso       1.00
        C7          C -0.3783963  0.2851219 -0.3861730    0.00000       Uiso       1.00
        C8          C -0.3783961  0.3360198 -0.3820835    0.00000       Uiso       1.00
        C9          C -0.3783979  0.7164990  0.3369294    0.00000       Uiso       1.00
       C10          C -0.3783992  0.7119186  0.3839513    0.00000       Uiso       1.00
       C11          C -0.3783966  0.3273695 -0.2882743    0.00000       Uiso       1.00
       C12          C -0.3783966  0.2805677 -0.3391751    0.00000       Uiso       1.00
        O1          O -0.3783917  0.5771940  0.2354855    0.00000       Uiso       1.00
        O2          O -0.3783982  0.4288270 -0.3254419    0.00000       Uiso       1.00
        O3          O -0.3783984  0.6570603  0.4198914    0.00000       Uiso       1.00
        O4          O -0.3783961  0.2443950 -0.4319856    0.00000       Uiso       1.00
        O5          O -0.3783994  0.7613556  0.3398828    0.00000       Uiso       1.00
        O6          O -0.3783958  0.3222733 -0.2475529    0.00000       Uiso       1.00
