data_FLT-COF-1_Staggered
_audit_creation_date              0000-00-00
_audit_creation_method            'LanYouShi'
_symmetry_space_group_name_H-M    'P1'
_cell_length_a                    46.0037003
_cell_length_b                    46.0037003
_cell_length_c                    6.6378002
_cell_angle_alpha                 90.0000000
_cell_angle_beta                  90.0000000
_cell_angle_gamma                 120.0000000
loop_
_atom_site_label
_atom_site_type_symbol
_atom_site_fract_x
_atom_site_fract_y
_atom_site_fract_z
_atom_site_U_iso_or_equiv
_atom_site_adp_type
_atom_site_occupancy
       xx1          C  0.3624400  0.6627700  0.2500000    0.00000       Uiso       1.00
       xx2          C  0.3663500  0.6958600  0.2500000    0.00000       Uiso       1.00
       xx3          C  0.3245900  0.6002600  0.2500000    0.00000       Uiso       1.00
       xx4          C  0.2923100  0.5723900  0.2500000    0.00000       Uiso       1.00
       xx5          C  0.2648200  0.5762300  0.2500000    0.00000       Uiso       1.00
       xx6          C  0.2679100  0.6079200  0.2500000    0.00000       Uiso       1.00
       xx7          O  0.2840800  0.5387500  0.2500000    0.00000       Uiso       1.00
       xx8          O  0.2348100  0.5458100  0.2500000    0.00000       Uiso       1.00
       xx9          C  0.9656700  0.9948800  0.2500000    0.00000       Uiso       1.00
      xx10          C  0.9702200  0.9662201  0.2500000    0.00000       Uiso       1.00
      xx11          C  0.9923600  0.0587300  0.2500000    0.00000       Uiso       1.00
      xx12          C  0.0222900  0.0921900  0.2500000    0.00000       Uiso       1.00
      xx13          C  0.0534400  0.0957500  0.2500000    0.00000       Uiso       1.00
      xx14          C  0.0575900  0.0677100  0.2500000    0.00000       Uiso       1.00
      xx15          H  0.9686000  0.0579100  0.2500000    0.00000       Uiso       1.00
      xx16          O  0.0228100  0.1226200  0.2500000    0.00000       Uiso       1.00
      xx17          O  0.0790100  0.1293000  0.2500000    0.00000       Uiso       1.00
      xx18          H  0.0831100  0.0729000  0.2500000    0.00000       Uiso       1.00
      xx19          C  0.6061800  0.6865400  0.2500000    0.00000       Uiso       1.00
      xx20          C  0.6063700  0.6562700  0.2500000    0.00000       Uiso       1.00
      xx21          C  0.6360500  0.6560100  0.2500000    0.00000       Uiso       1.00
      xx22          C  0.6659400  0.6862500  0.2500000    0.00000       Uiso       1.00
      xx23          C  0.6659400  0.7172400  0.2500000    0.00000       Uiso       1.00
      xx24          C  0.6366500  0.7189100  0.2500000    0.00000       Uiso       1.00
      xx25          C  0.6952300  0.7482100  0.2500000    0.00000       Uiso       1.00
      xx26          C  0.7257000  0.7462900  0.2500000    0.00000       Uiso       1.00
      xx27          C  0.7255200  0.7158400  0.2500000    0.00000       Uiso       1.00
      xx28          C  0.6958400  0.6859000  0.2500000    0.00000       Uiso       1.00
      xx29          C  0.6472400  0.7567300  0.2500000    0.00000       Uiso       1.00
      xx30          C  0.6846000  0.7754100  0.2500000    0.00000       Uiso       1.00
      xx31          C  0.7035600  0.8129700  0.2500000    0.00000       Uiso       1.00
      xx32          C  0.6830900  0.8274200  0.2500000    0.00000       Uiso       1.00
      xx33          C  0.6487100  0.8102201  0.2500000    0.00000       Uiso       1.00
      xx34          C  0.6282500  0.7753000  0.2500000    0.00000       Uiso       1.00
      xx35          C  0.7421500  0.8403000  0.2500000    0.00000       Uiso       1.00
      xx36          C  0.5896400  0.7640400  0.2500000    0.00000       Uiso       1.00
      xx37          C  0.7667599  0.8315799  0.2500000    0.00000       Uiso       1.00
      xx38          C  0.8013900  0.8537900  0.2500000    0.00000       Uiso       1.00
      xx39          C  0.8140700  0.8882700  0.2500000    0.00000       Uiso       1.00
      xx40          C  0.7908100  0.8994401  0.2500000    0.00000       Uiso       1.00
      xx41          C  0.7558200  0.8762501  0.2500000    0.00000       Uiso       1.00
      xx42          C  0.5649700  0.7307100  0.2500000    0.00000       Uiso       1.00
      xx43          C  0.5303300  0.7183500  0.2500000    0.00000       Uiso       1.00
      xx44          C  0.5177100  0.7402100  0.2500000    0.00000       Uiso       1.00
      xx45          C  0.5410400  0.7746300  0.2500000    0.00000       Uiso       1.00
      xx46          C  0.5760200  0.7863500  0.2500000    0.00000       Uiso       1.00
      xx47          B  0.8536800  0.9128100  0.2500000    0.00000       Uiso       1.00
      xx48          B  0.4780900  0.7252800  0.2500000    0.00000       Uiso       1.00
      xx49          H  0.3447300  0.5947900  0.2500000    0.00000       Uiso       1.00
      xx50          H  0.2446900  0.6082000  0.2500000    0.00000       Uiso       1.00
      xx51          H  0.5805200  0.6788700  0.2500000    0.00000       Uiso       1.00
      xx52          H  0.5829900  0.6324700  0.2500000    0.00000       Uiso       1.00
      xx53          H  0.6356000  0.6322000  0.2500000    0.00000       Uiso       1.00
      xx54          H  0.7513900  0.7642800  0.2500000    0.00000       Uiso       1.00
      xx55          H  0.7488900  0.7154100  0.2500000    0.00000       Uiso       1.00
      xx56          H  0.6962900  0.6625600  0.2500000    0.00000       Uiso       1.00
      xx57          H  0.6928300  0.8538899  0.2500000    0.00000       Uiso       1.00
      xx58          H  0.6389900  0.8269700  0.2500000    0.00000       Uiso       1.00
      xx59          H  0.7588600  0.8074100  0.2500000    0.00000       Uiso       1.00
      xx60          H  0.8181500  0.8436000  0.2500000    0.00000       Uiso       1.00
      xx61          H  0.7995300  0.9261200  0.2500000    0.00000       Uiso       1.00
      xx62          H  0.7410400  0.8883400  0.2500000    0.00000       Uiso       1.00
      xx63          H  0.5727600  0.7143500  0.2500000    0.00000       Uiso       1.00
      xx64          H  0.5135100  0.6914200  0.2500000    0.00000       Uiso       1.00
      xx65          H  0.5323900  0.7926300  0.2500000    0.00000       Uiso       1.00
      xx66          H  0.5908100  0.8132201  0.2500000    0.00000       Uiso       1.00
      xx67          C  0.3372300  0.6996700  0.2500000    0.00000       Uiso       1.00
      xx68          C  0.3041400  0.6704900  0.2500000    0.00000       Uiso       1.00
      xx69          C  0.3997400  0.7243300  0.2500000    0.00000       Uiso       1.00
      xx70          C  0.4276100  0.7199200  0.2500000    0.00000       Uiso       1.00
      xx71          C  0.4237700  0.6885900  0.2500000    0.00000       Uiso       1.00
      xx72          C  0.3920800  0.6599900  0.2500000    0.00000       Uiso       1.00
      xx73          O  0.4612500  0.7453300  0.2500000    0.00000       Uiso       1.00
      xx74          O  0.4541900  0.6890000  0.2500000    0.00000       Uiso       1.00
      xx75          C  0.0051200  0.9707900  0.2500000    0.00000       Uiso       1.00
      xx76          C  0.0337800  0.0040000  0.2500000    0.00000       Uiso       1.00
      xx77          C  0.9412700  0.9336300  0.2500000    0.00000       Uiso       1.00
      xx78          C  0.9078100  0.9301000  0.2500000    0.00000       Uiso       1.00
      xx79          C  0.9042500  0.9576900  0.2500000    0.00000       Uiso       1.00
      xx80          C  0.9322900  0.9898801  0.2500000    0.00000       Uiso       1.00
      xx81          H  0.9420900  0.9106900  0.2500000    0.00000       Uiso       1.00
      xx82          O  0.8773801  0.9001901  0.2500000    0.00000       Uiso       1.00
      xx83          O  0.8707000  0.9497100  0.2500000    0.00000       Uiso       1.00
      xx84          H  0.9270999  0.0102100  0.2500000    0.00000       Uiso       1.00
      xx85          C  0.3134600  0.9196400  0.2500000    0.00000       Uiso       1.00
      xx86          C  0.3437300  0.9500999  0.2500000    0.00000       Uiso       1.00
      xx87          C  0.3439900  0.9800400  0.2500000    0.00000       Uiso       1.00
      xx88          C  0.3137500  0.9796900  0.2500000    0.00000       Uiso       1.00
      xx89          C  0.2827600  0.9487000  0.2500000    0.00000       Uiso       1.00
      xx90          C  0.2810900  0.9177400  0.2500000    0.00000       Uiso       1.00
      xx91          C  0.2517900  0.9470200  0.2500000    0.00000       Uiso       1.00
      xx92          C  0.2537100  0.9794099  0.2500000    0.00000       Uiso       1.00
      xx93          C  0.2841600  0.0096800  0.2500000    0.00000       Uiso       1.00
      xx94          C  0.3141000  0.0099400  0.2500000    0.00000       Uiso       1.00
      xx95          C  0.2432700  0.8905100  0.2500000    0.00000       Uiso       1.00
      xx96          C  0.2245900  0.9091900  0.2500000    0.00000       Uiso       1.00
      xx97          C  0.1870300  0.8905900  0.2500000    0.00000       Uiso       1.00
      xx98          C  0.1725800  0.8556700  0.2500000    0.00000       Uiso       1.00
      xx99          C  0.1897800  0.8384900  0.2500000    0.00000       Uiso       1.00
     xx100          C  0.2247000  0.8529500  0.2500000    0.00000       Uiso       1.00
     xx101          C  0.1597000  0.9018499  0.2500000    0.00000       Uiso       1.00
     xx102          C  0.2359600  0.8256000  0.2500000    0.00000       Uiso       1.00
     xx103          C  0.1684200  0.9351800  0.2500000    0.00000       Uiso       1.00
     xx104          C  0.1462100  0.9476000  0.2500000    0.00000       Uiso       1.00
     xx105          C  0.1117300  0.9258001  0.2500000    0.00000       Uiso       1.00
     xx106          C  0.1005600  0.8913700  0.2500000    0.00000       Uiso       1.00
     xx107          C  0.1237500  0.8795700  0.2500000    0.00000       Uiso       1.00
     xx108          C  0.2692900  0.8342600  0.2500000    0.00000       Uiso       1.00
     xx109          C  0.2816500  0.8119800  0.2500000    0.00000       Uiso       1.00
     xx110          C  0.2597900  0.7775000  0.2500000    0.00000       Uiso       1.00
     xx111          C  0.2253700  0.7664100  0.2500000    0.00000       Uiso       1.00
     xx112          C  0.2136500  0.7896700  0.2500000    0.00000       Uiso       1.00
     xx113          B  0.0871900  0.9408700  0.2500000    0.00000       Uiso       1.00
     xx114          B  0.2747200  0.7528100  0.2500000    0.00000       Uiso       1.00
     xx115          H  0.4052100  0.7499400  0.2500000    0.00000       Uiso       1.00
     xx116          H  0.3918000  0.6364900  0.2500000    0.00000       Uiso       1.00
     xx117          H  0.3211300  0.9016500  0.2500000    0.00000       Uiso       1.00
     xx118          H  0.3675300  0.9505200  0.2500000    0.00000       Uiso       1.00
     xx119          H  0.3678000  0.0034000  0.2500000    0.00000       Uiso       1.00
     xx120          H  0.2357200  0.9871100  0.2500000    0.00000       Uiso       1.00
     xx121          H  0.2845900  0.0334800  0.2500000    0.00000       Uiso       1.00
     xx122          H  0.3374400  0.0337300  0.2500000    0.00000       Uiso       1.00
     xx123          H  0.1461100  0.8389400  0.2500000    0.00000       Uiso       1.00
     xx124          H  0.1730300  0.8120200  0.2500000    0.00000       Uiso       1.00
     xx125          H  0.1925900  0.9514500  0.2500000    0.00000       Uiso       1.00
     xx126          H  0.1564000  0.9745500  0.2500000    0.00000       Uiso       1.00
     xx127          H  0.0738800  0.8734099  0.2500000    0.00000       Uiso       1.00
     xx128          H  0.1116600  0.8527000  0.2500000    0.00000       Uiso       1.00
     xx129          H  0.2856500  0.8584100  0.2500000    0.00000       Uiso       1.00
     xx130          H  0.3085800  0.8220900  0.2500000    0.00000       Uiso       1.00
     xx131          H  0.2073700  0.7397600  0.2500000    0.00000       Uiso       1.00
     xx132          H  0.1867800  0.7775900  0.2500000    0.00000       Uiso       1.00
     xx133          C  0.3003300  0.6375600  0.2500000    0.00000       Uiso       1.00
     xx134          C  0.3295100  0.6336500  0.2500000    0.00000       Uiso       1.00
     xx135          C  0.2756700  0.6754100  0.2500000    0.00000       Uiso       1.00
     xx136          C  0.2800800  0.7076900  0.2500000    0.00000       Uiso       1.00
     xx137          C  0.3114100  0.7351800  0.2500000    0.00000       Uiso       1.00
     xx138          C  0.3400100  0.7320900  0.2500000    0.00000       Uiso       1.00
     xx139          O  0.2546700  0.7159200  0.2500000    0.00000       Uiso       1.00
     xx140          O  0.3110000  0.7651900  0.2500000    0.00000       Uiso       1.00
     xx141          C  0.0292100  0.0343300  0.2500000    0.00000       Uiso       1.00
     xx142          C  0.9960000  0.0297800  0.2500000    0.00000       Uiso       1.00
     xx143          C  0.0663700  0.0076400  0.2500000    0.00000       Uiso       1.00
     xx144          C  0.0699000  0.9777100  0.2500000    0.00000       Uiso       1.00
     xx145          C  0.0423100  0.9465600  0.2500000    0.00000       Uiso       1.00
     xx146          C  0.0101200  0.9424101  0.2500000    0.00000       Uiso       1.00
     xx147          H  0.0893100  0.0314000  0.2500000    0.00000       Uiso       1.00
     xx148          O  0.0998100  0.9771900  0.2500000    0.00000       Uiso       1.00
     xx149          O  0.0502900  0.9209900  0.2500000    0.00000       Uiso       1.00
     xx150          H  0.9897900  0.9168900  0.2500000    0.00000       Uiso       1.00
     xx151          C  0.0803600  0.3938200  0.2500000    0.00000       Uiso       1.00
     xx152          C  0.0499000  0.3936300  0.2500000    0.00000       Uiso       1.00
     xx153          C  0.0199600  0.3639500  0.2500000    0.00000       Uiso       1.00
     xx154          C  0.0203100  0.3340600  0.2500000    0.00000       Uiso       1.00
     xx155          C  0.0513000  0.3340600  0.2500000    0.00000       Uiso       1.00
     xx156          C  0.0822600  0.3633500  0.2500000    0.00000       Uiso       1.00
     xx157          C  0.0529800  0.3047700  0.2500000    0.00000       Uiso       1.00
     xx158          C  0.0205900  0.2743000  0.2500000    0.00000       Uiso       1.00
     xx159          C  0.9903200  0.2744800  0.2500000    0.00000       Uiso       1.00
     xx160          C  0.9900600  0.3041600  0.2500000    0.00000       Uiso       1.00
     xx161          C  0.1094900  0.3527600  0.2500000    0.00000       Uiso       1.00
     xx162          C  0.0908100  0.3154000  0.2500000    0.00000       Uiso       1.00
     xx163          C  0.1094100  0.2964400  0.2500000    0.00000       Uiso       1.00
     xx164          C  0.1443300  0.3169100  0.2500000    0.00000       Uiso       1.00
     xx165          C  0.1615100  0.3512900  0.2500000    0.00000       Uiso       1.00
     xx166          C  0.1470500  0.3717500  0.2500000    0.00000       Uiso       1.00
     xx167          C  0.0981500  0.2578500  0.2500000    0.00000       Uiso       1.00
     xx168          C  0.1744000  0.4103600  0.2500000    0.00000       Uiso       1.00
     xx169          C  0.0648200  0.2332400  0.2500000    0.00000       Uiso       1.00
     xx170          C  0.0524000  0.1986100  0.2500000    0.00000       Uiso       1.00
     xx171          C  0.0742000  0.1859300  0.2500000    0.00000       Uiso       1.00
     xx172          C  0.1086300  0.2091900  0.2500000    0.00000       Uiso       1.00
     xx173          C  0.1204300  0.2441800  0.2500000    0.00000       Uiso       1.00
     xx174          C  0.1657400  0.4350300  0.2500000    0.00000       Uiso       1.00
     xx175          C  0.1880200  0.4696700  0.2500000    0.00000       Uiso       1.00
     xx176          C  0.2225000  0.4822900  0.2500000    0.00000       Uiso       1.00
     xx177          C  0.2335900  0.4589600  0.2500000    0.00000       Uiso       1.00
     xx178          C  0.2103300  0.4239800  0.2500000    0.00000       Uiso       1.00
     xx179          B  0.0591300  0.1463200  0.2500000    0.00000       Uiso       1.00
     xx180          B  0.2471900  0.5219100  0.2500000    0.00000       Uiso       1.00
     xx181          H  0.2500600  0.6552700  0.2500000    0.00000       Uiso       1.00
     xx182          H  0.3635100  0.7553100  0.2500000    0.00000       Uiso       1.00
     xx183          H  0.0983500  0.4194800  0.2500000    0.00000       Uiso       1.00
     xx184          H  0.0494800  0.4170100  0.2500000    0.00000       Uiso       1.00
     xx185          H  0.9966000  0.3644000  0.2500000    0.00000       Uiso       1.00
     xx186          H  0.0128900  0.2486100  0.2500000    0.00000       Uiso       1.00
     xx187          H  0.9665200  0.2511100  0.2500000    0.00000       Uiso       1.00
     xx188          H  0.9662701  0.3037100  0.2500000    0.00000       Uiso       1.00
     xx189          H  0.1610600  0.3071700  0.2500000    0.00000       Uiso       1.00
     xx190          H  0.1879800  0.3610100  0.2500000    0.00000       Uiso       1.00
     xx191          H  0.0485500  0.2411400  0.2500000    0.00000       Uiso       1.00
     xx192          H  0.0254500  0.1818500  0.2500000    0.00000       Uiso       1.00
     xx193          H  0.1265900  0.2004700  0.2500000    0.00000       Uiso       1.00
     xx194          H  0.1473000  0.2589600  0.2500000    0.00000       Uiso       1.00
     xx195          H  0.1415900  0.4272400  0.2500000    0.00000       Uiso       1.00
     xx196          H  0.1779100  0.4864900  0.2500000    0.00000       Uiso       1.00
     xx197          H  0.2602400  0.4676100  0.2500000    0.00000       Uiso       1.00
     xx198          H  0.2224100  0.4091900  0.2500000    0.00000       Uiso       1.00
     xx199          C  0.6375600  0.3372300  0.7500000    0.00000       Uiso       1.00
     xx200          C  0.6336500  0.3041400  0.7500000    0.00000       Uiso       1.00
     xx201          C  0.6754100  0.3997400  0.7500000    0.00000       Uiso       1.00
     xx202          C  0.7076900  0.4276100  0.7500000    0.00000       Uiso       1.00
     xx203          C  0.7351800  0.4237700  0.7500000    0.00000       Uiso       1.00
     xx204          C  0.7320900  0.3920800  0.7500000    0.00000       Uiso       1.00
     xx205          O  0.7159200  0.4612500  0.7500000    0.00000       Uiso       1.00
     xx206          O  0.7651900  0.4541900  0.7500000    0.00000       Uiso       1.00
     xx207          C  0.0343300  0.0051200  0.7500000    0.00000       Uiso       1.00
     xx208          C  0.0297800  0.0337800  0.7500000    0.00000       Uiso       1.00
     xx209          C  0.0076400  0.9412701  0.7500000    0.00000       Uiso       1.00
     xx210          C  0.9777100  0.9078100  0.7500000    0.00000       Uiso       1.00
     xx211          C  0.9465600  0.9042500  0.7500000    0.00000       Uiso       1.00
     xx212          C  0.9424100  0.9322900  0.7500000    0.00000       Uiso       1.00
     xx213          H  0.0314000  0.9420899  0.7500000    0.00000       Uiso       1.00
     xx214          O  0.9771900  0.8773800  0.7500000    0.00000       Uiso       1.00
     xx215          O  0.9209900  0.8707001  0.7500000    0.00000       Uiso       1.00
     xx216          H  0.9168900  0.9270999  0.7500000    0.00000       Uiso       1.00
     xx217          C  0.3938200  0.3134600  0.7500000    0.00000       Uiso       1.00
     xx218          C  0.3936300  0.3437300  0.7500000    0.00000       Uiso       1.00
     xx219          C  0.3639500  0.3439900  0.7500000    0.00000       Uiso       1.00
     xx220          C  0.3340600  0.3137500  0.7500000    0.00000       Uiso       1.00
     xx221          C  0.3340600  0.2827600  0.7500000    0.00000       Uiso       1.00
     xx222          C  0.3633500  0.2810900  0.7500000    0.00000       Uiso       1.00
     xx223          C  0.3047700  0.2517900  0.7500000    0.00000       Uiso       1.00
     xx224          C  0.2743000  0.2537100  0.7500000    0.00000       Uiso       1.00
     xx225          C  0.2744800  0.2841600  0.7500000    0.00000       Uiso       1.00
     xx226          C  0.3041600  0.3141000  0.7500000    0.00000       Uiso       1.00
     xx227          C  0.3527600  0.2432700  0.7500000    0.00000       Uiso       1.00
     xx228          C  0.3154000  0.2245900  0.7500000    0.00000       Uiso       1.00
     xx229          C  0.2964400  0.1870300  0.7500000    0.00000       Uiso       1.00
     xx230          C  0.3169100  0.1725800  0.7500000    0.00000       Uiso       1.00
     xx231          C  0.3512900  0.1897800  0.7500000    0.00000       Uiso       1.00
     xx232          C  0.3717500  0.2247000  0.7500000    0.00000       Uiso       1.00
     xx233          C  0.2578500  0.1597000  0.7500000    0.00000       Uiso       1.00
     xx234          C  0.4103600  0.2359600  0.7500000    0.00000       Uiso       1.00
     xx235          C  0.2332400  0.1684200  0.7500000    0.00000       Uiso       1.00
     xx236          C  0.1986100  0.1462100  0.7500000    0.00000       Uiso       1.00
     xx237          C  0.1859300  0.1117300  0.7500000    0.00000       Uiso       1.00
     xx238          C  0.2091900  0.1005600  0.7500000    0.00000       Uiso       1.00
     xx239          C  0.2441800  0.1237500  0.7500000    0.00000       Uiso       1.00
     xx240          C  0.4350300  0.2692900  0.7500000    0.00000       Uiso       1.00
     xx241          C  0.4696700  0.2816500  0.7500000    0.00000       Uiso       1.00
     xx242          C  0.4822900  0.2597900  0.7500000    0.00000       Uiso       1.00
     xx243          C  0.4589600  0.2253700  0.7500000    0.00000       Uiso       1.00
     xx244          C  0.4239800  0.2136500  0.7500000    0.00000       Uiso       1.00
     xx245          B  0.1463200  0.0871900  0.7500000    0.00000       Uiso       1.00
     xx246          B  0.5219100  0.2747200  0.7500000    0.00000       Uiso       1.00
     xx247          H  0.6552700  0.4052100  0.7500000    0.00000       Uiso       1.00
     xx248          H  0.7553100  0.3918000  0.7500000    0.00000       Uiso       1.00
     xx249          H  0.4194800  0.3211300  0.7500000    0.00000       Uiso       1.00
     xx250          H  0.4170100  0.3675300  0.7500000    0.00000       Uiso       1.00
     xx251          H  0.3644000  0.3678000  0.7500000    0.00000       Uiso       1.00
     xx252          H  0.2486100  0.2357200  0.7500000    0.00000       Uiso       1.00
     xx253          H  0.2511100  0.2845900  0.7500000    0.00000       Uiso       1.00
     xx254          H  0.3037100  0.3374400  0.7500000    0.00000       Uiso       1.00
     xx255          H  0.3071700  0.1461100  0.7500000    0.00000       Uiso       1.00
     xx256          H  0.3610100  0.1730300  0.7500000    0.00000       Uiso       1.00
     xx257          H  0.2411400  0.1925900  0.7500000    0.00000       Uiso       1.00
     xx258          H  0.1818500  0.1564000  0.7500000    0.00000       Uiso       1.00
     xx259          H  0.2004700  0.0738800  0.7500000    0.00000       Uiso       1.00
     xx260          H  0.2589600  0.1116600  0.7500000    0.00000       Uiso       1.00
     xx261          H  0.4272400  0.2856500  0.7500000    0.00000       Uiso       1.00
     xx262          H  0.4864900  0.3085800  0.7500000    0.00000       Uiso       1.00
     xx263          H  0.4676100  0.2073700  0.7500000    0.00000       Uiso       1.00
     xx264          H  0.4091900  0.1867800  0.7500000    0.00000       Uiso       1.00
     xx265          C  0.6627700  0.3003300  0.7500000    0.00000       Uiso       1.00
     xx266          C  0.6958600  0.3295100  0.7500000    0.00000       Uiso       1.00
     xx267          C  0.6002600  0.2756700  0.7500000    0.00000       Uiso       1.00
     xx268          C  0.5723900  0.2800800  0.7500000    0.00000       Uiso       1.00
     xx269          C  0.5762300  0.3114100  0.7500000    0.00000       Uiso       1.00
     xx270          C  0.6079200  0.3400100  0.7500000    0.00000       Uiso       1.00
     xx271          O  0.5387500  0.2546700  0.7500000    0.00000       Uiso       1.00
     xx272          O  0.5458100  0.3110000  0.7500000    0.00000       Uiso       1.00
     xx273          C  0.9948800  0.0292100  0.7500000    0.00000       Uiso       1.00
     xx274          C  0.9662200  0.9960000  0.7500000    0.00000       Uiso       1.00
     xx275          C  0.0587300  0.0663700  0.7500000    0.00000       Uiso       1.00
     xx276          C  0.0921900  0.0699000  0.7500000    0.00000       Uiso       1.00
     xx277          C  0.0957500  0.0423100  0.7500000    0.00000       Uiso       1.00
     xx278          C  0.0677100  0.0101200  0.7500000    0.00000       Uiso       1.00
     xx279          H  0.0579100  0.0893100  0.7500000    0.00000       Uiso       1.00
     xx280          O  0.1226200  0.0998100  0.7500000    0.00000       Uiso       1.00
     xx281          O  0.1293000  0.0502900  0.7500000    0.00000       Uiso       1.00
     xx282          H  0.0729000  0.9897901  0.7500000    0.00000       Uiso       1.00
     xx283          C  0.6865400  0.0803600  0.7500000    0.00000       Uiso       1.00
     xx284          C  0.6562700  0.0499000  0.7500000    0.00000       Uiso       1.00
     xx285          C  0.6560100  0.0199600  0.7500000    0.00000       Uiso       1.00
     xx286          C  0.6862500  0.0203100  0.7500000    0.00000       Uiso       1.00
     xx287          C  0.7172400  0.0513000  0.7500000    0.00000       Uiso       1.00
     xx288          C  0.7189100  0.0822600  0.7500000    0.00000       Uiso       1.00
     xx289          C  0.7482100  0.0529800  0.7500000    0.00000       Uiso       1.00
     xx290          C  0.7462900  0.0205900  0.7500000    0.00000       Uiso       1.00
     xx291          C  0.7158400  0.9903200  0.7500000    0.00000       Uiso       1.00
     xx292          C  0.6859000  0.9900600  0.7500000    0.00000       Uiso       1.00
     xx293          C  0.7567300  0.1094900  0.7500000    0.00000       Uiso       1.00
     xx294          C  0.7754100  0.0908100  0.7500000    0.00000       Uiso       1.00
     xx295          C  0.8129700  0.1094100  0.7500000    0.00000       Uiso       1.00
     xx296          C  0.8274200  0.1443300  0.7500000    0.00000       Uiso       1.00
     xx297          C  0.8102200  0.1615100  0.7500000    0.00000       Uiso       1.00
     xx298          C  0.7753000  0.1470500  0.7500000    0.00000       Uiso       1.00
     xx299          C  0.8403001  0.0981500  0.7500000    0.00000       Uiso       1.00
     xx300          C  0.7640400  0.1744000  0.7500000    0.00000       Uiso       1.00
     xx301          C  0.8315800  0.0648200  0.7500000    0.00000       Uiso       1.00
     xx302          C  0.8537900  0.0524000  0.7500000    0.00000       Uiso       1.00
     xx303          C  0.8882700  0.0742000  0.7500000    0.00000       Uiso       1.00
     xx304          C  0.8994400  0.1086300  0.7500000    0.00000       Uiso       1.00
     xx305          C  0.8762500  0.1204300  0.7500000    0.00000       Uiso       1.00
     xx306          C  0.7307100  0.1657400  0.7500000    0.00000       Uiso       1.00
     xx307          C  0.7183500  0.1880200  0.7500000    0.00000       Uiso       1.00
     xx308          C  0.7402100  0.2225000  0.7500000    0.00000       Uiso       1.00
     xx309          C  0.7746300  0.2335900  0.7500000    0.00000       Uiso       1.00
     xx310          C  0.7863500  0.2103300  0.7500000    0.00000       Uiso       1.00
     xx311          B  0.9128100  0.0591300  0.7500000    0.00000       Uiso       1.00
     xx312          B  0.7252800  0.2471900  0.7500000    0.00000       Uiso       1.00
     xx313          H  0.5947900  0.2500600  0.7500000    0.00000       Uiso       1.00
     xx314          H  0.6082000  0.3635100  0.7500000    0.00000       Uiso       1.00
     xx315          H  0.6788700  0.0983500  0.7500000    0.00000       Uiso       1.00
     xx316          H  0.6324700  0.0494800  0.7500000    0.00000       Uiso       1.00
     xx317          H  0.6322000  0.9966000  0.7500000    0.00000       Uiso       1.00
     xx318          H  0.7642800  0.0128900  0.7500000    0.00000       Uiso       1.00
     xx319          H  0.7154100  0.9665201  0.7500000    0.00000       Uiso       1.00
     xx320          H  0.6625600  0.9662700  0.7500000    0.00000       Uiso       1.00
     xx321          H  0.8538901  0.1610600  0.7500000    0.00000       Uiso       1.00
     xx322          H  0.8269700  0.1879800  0.7500000    0.00000       Uiso       1.00
     xx323          H  0.8074100  0.0485500  0.7500000    0.00000       Uiso       1.00
     xx324          H  0.8436000  0.0254500  0.7500000    0.00000       Uiso       1.00
     xx325          H  0.9261200  0.1265900  0.7500000    0.00000       Uiso       1.00
     xx326          H  0.8883401  0.1473000  0.7500000    0.00000       Uiso       1.00
     xx327          H  0.7143500  0.1415900  0.7500000    0.00000       Uiso       1.00
     xx328          H  0.6914200  0.1779100  0.7500000    0.00000       Uiso       1.00
     xx329          H  0.7926300  0.2602400  0.7500000    0.00000       Uiso       1.00
     xx330          H  0.8132200  0.2224100  0.7500000    0.00000       Uiso       1.00
     xx331          C  0.6996700  0.3624400  0.7500000    0.00000       Uiso       1.00
     xx332          C  0.6704900  0.3663500  0.7500000    0.00000       Uiso       1.00
     xx333          C  0.7243300  0.3245900  0.7500000    0.00000       Uiso       1.00
     xx334          C  0.7199200  0.2923100  0.7500000    0.00000       Uiso       1.00
     xx335          C  0.6885900  0.2648200  0.7500000    0.00000       Uiso       1.00
     xx336          C  0.6599900  0.2679100  0.7500000    0.00000       Uiso       1.00
     xx337          O  0.7453300  0.2840800  0.7500000    0.00000       Uiso       1.00
     xx338          O  0.6890000  0.2348100  0.7500000    0.00000       Uiso       1.00
     xx339          C  0.9707900  0.9656700  0.7500000    0.00000       Uiso       1.00
     xx340          C  0.0040000  0.9702200  0.7500000    0.00000       Uiso       1.00
     xx341          C  0.9336300  0.9923600  0.7500000    0.00000       Uiso       1.00
     xx342          C  0.9301000  0.0222900  0.7500000    0.00000       Uiso       1.00
     xx343          C  0.9576900  0.0534400  0.7500000    0.00000       Uiso       1.00
     xx344          C  0.9898800  0.0575900  0.7500000    0.00000       Uiso       1.00
     xx345          H  0.9106900  0.9686000  0.7500000    0.00000       Uiso       1.00
     xx346          O  0.9001900  0.0228100  0.7500000    0.00000       Uiso       1.00
     xx347          O  0.9497100  0.0790100  0.7500000    0.00000       Uiso       1.00
     xx348          H  0.0102100  0.0831100  0.7500000    0.00000       Uiso       1.00
     xx349          C  0.9196400  0.6061800  0.7500000    0.00000       Uiso       1.00
     xx350          C  0.9501000  0.6063700  0.7500000    0.00000       Uiso       1.00
     xx351          C  0.9800400  0.6360500  0.7500000    0.00000       Uiso       1.00
     xx352          C  0.9796900  0.6659400  0.7500000    0.00000       Uiso       1.00
     xx353          C  0.9487000  0.6659400  0.7500000    0.00000       Uiso       1.00
     xx354          C  0.9177400  0.6366500  0.7500000    0.00000       Uiso       1.00
     xx355          C  0.9470200  0.6952300  0.7500000    0.00000       Uiso       1.00
     xx356          C  0.9794100  0.7257000  0.7500000    0.00000       Uiso       1.00
     xx357          C  0.0096800  0.7255200  0.7500000    0.00000       Uiso       1.00
     xx358          C  0.0099400  0.6958400  0.7500000    0.00000       Uiso       1.00
     xx359          C  0.8905100  0.6472400  0.7500000    0.00000       Uiso       1.00
     xx360          C  0.9091900  0.6846000  0.7500000    0.00000       Uiso       1.00
     xx361          C  0.8905900  0.7035600  0.7500000    0.00000       Uiso       1.00
     xx362          C  0.8556700  0.6830900  0.7500000    0.00000       Uiso       1.00
     xx363          C  0.8384900  0.6487100  0.7500000    0.00000       Uiso       1.00
     xx364          C  0.8529500  0.6282500  0.7500000    0.00000       Uiso       1.00
     xx365          C  0.9018500  0.7421500  0.7500000    0.00000       Uiso       1.00
     xx366          C  0.8256000  0.5896400  0.7500000    0.00000       Uiso       1.00
     xx367          C  0.9351800  0.7667600  0.7500000    0.00000       Uiso       1.00
     xx368          C  0.9476000  0.8013900  0.7500000    0.00000       Uiso       1.00
     xx369          C  0.9258000  0.8140700  0.7500000    0.00000       Uiso       1.00
     xx370          C  0.8913700  0.7908100  0.7500000    0.00000       Uiso       1.00
     xx371          C  0.8795700  0.7558200  0.7500000    0.00000       Uiso       1.00
     xx372          C  0.8342600  0.5649700  0.7500000    0.00000       Uiso       1.00
     xx373          C  0.8119800  0.5303300  0.7500000    0.00000       Uiso       1.00
     xx374          C  0.7775000  0.5177100  0.7500000    0.00000       Uiso       1.00
     xx375          C  0.7664100  0.5410400  0.7500000    0.00000       Uiso       1.00
     xx376          C  0.7896700  0.5760200  0.7500000    0.00000       Uiso       1.00
     xx377          B  0.9408700  0.8536800  0.7500000    0.00000       Uiso       1.00
     xx378          B  0.7528100  0.4780900  0.7500000    0.00000       Uiso       1.00
     xx379          H  0.7499400  0.3447300  0.7500000    0.00000       Uiso       1.00
     xx380          H  0.6364900  0.2446900  0.7500000    0.00000       Uiso       1.00
     xx381          H  0.9016500  0.5805200  0.7500000    0.00000       Uiso       1.00
     xx382          H  0.9505200  0.5829900  0.7500000    0.00000       Uiso       1.00
     xx383          H  0.0034000  0.6356000  0.7500000    0.00000       Uiso       1.00
     xx384          H  0.9871100  0.7513900  0.7500000    0.00000       Uiso       1.00
     xx385          H  0.0334800  0.7488900  0.7500000    0.00000       Uiso       1.00
     xx386          H  0.0337300  0.6962900  0.7500000    0.00000       Uiso       1.00
     xx387          H  0.8389400  0.6928300  0.7500000    0.00000       Uiso       1.00
     xx388          H  0.8120200  0.6389900  0.7500000    0.00000       Uiso       1.00
     xx389          H  0.9514500  0.7588600  0.7500000    0.00000       Uiso       1.00
     xx390          H  0.9745500  0.8181500  0.7500000    0.00000       Uiso       1.00
     xx391          H  0.8734100  0.7995300  0.7500000    0.00000       Uiso       1.00
     xx392          H  0.8527000  0.7410400  0.7500000    0.00000       Uiso       1.00
     xx393          H  0.8584100  0.5727600  0.7500000    0.00000       Uiso       1.00
     xx394          H  0.8220900  0.5135100  0.7500000    0.00000       Uiso       1.00
     xx395          H  0.7397600  0.5323900  0.7500000    0.00000       Uiso       1.00
     xx396          H  0.7775900  0.5908100  0.7500000    0.00000       Uiso       1.00
