data_HBC-COF-real
_audit_creation_date              0000-00-00
_audit_creation_method            'LanYouShi'
_symmetry_space_group_name_H-M    'P1'
_cell_length_a                    30.1777000
_cell_length_b                    30.2042999
_cell_length_c                    3.7340000
_cell_angle_alpha                 107.5979996
_cell_angle_beta                  80.6733017
_cell_angle_gamma                 120.0753021
loop_
_atom_site_label
_atom_site_type_symbol
_atom_site_fract_x
_atom_site_fract_y
_atom_site_fract_z
_atom_site_U_iso_or_equiv
_atom_site_adp_type
_atom_site_occupancy
        C1          C  0.0467120  0.9999920  0.0169680    0.00000       Uiso       1.00
        C2          C  0.0004670  0.0463260 -0.0249460    0.00000       Uiso       1.00
        C3          C  0.9522340  0.9538540  0.0211360    0.00000       Uiso       1.00
        C4          C  0.9528870  0.0002960 -0.0040340    0.00000       Uiso       1.00
        C5          C  0.9991480  0.9537900  0.0334800    0.00000       Uiso       1.00
        C6          C  0.0473650  0.0461630 -0.0151920    0.00000       Uiso       1.00
        C7          C  0.0935590  0.9996740  0.0266330    0.00000       Uiso       1.00
        C8          C  0.0011520  0.0927480 -0.0510240    0.00000       Uiso       1.00
        C9          C  0.9046510  0.9074710  0.0341610    0.00000       Uiso       1.00
       C10          C  0.9059780  0.0007120 -0.0085190    0.00000       Uiso       1.00
       C11          C  0.9985250  0.9072980  0.0574150    0.00000       Uiso       1.00
       C12          C  0.0948770  0.0925130 -0.0310110    0.00000       Uiso       1.00
       C13          C  0.0453050  0.9075180  0.0829920    0.00000       Uiso       1.00
       C14          C  0.0956090  0.1387990 -0.0640190    0.00000       Uiso       1.00
       C15          C  0.8582990  0.9546160  0.0125860    0.00000       Uiso       1.00
       C16          C  0.9542891  0.0939570 -0.0375720    0.00000       Uiso       1.00
       C17          C  0.9040280  0.8608600  0.0571670    0.00000       Uiso       1.00
       C18          C  0.1411070  0.0455870 -0.0005350    0.00000       Uiso       1.00
       C19          C  0.0929850  0.9534120  0.0587800    0.00000       Uiso       1.00
       C20          C  0.0486170  0.1382900 -0.0860000    0.00000       Uiso       1.00
       C21          C  0.8576230  0.9074810  0.0223830    0.00000       Uiso       1.00
       C22          C  0.9066720  0.0473340 -0.0324110    0.00000       Uiso       1.00
       C23          C  0.9509590  0.8601460  0.0509420    0.00000       Uiso       1.00
       C24          C  0.1417590  0.0927730 -0.0086170    0.00000       Uiso       1.00
       C25          C  0.0422170  0.8607289  0.1240330    0.00000       Uiso       1.00
       C26          C  0.1438640  0.1849110 -0.0601920    0.00000       Uiso       1.00
       C27          C  0.8126260  0.9578820  0.0292540    0.00000       Uiso       1.00
       C28          C  0.9570390  0.1429390 -0.0184890    0.00000       Uiso       1.00
       C29          C  0.8559000  0.8164470  0.0924310    0.00000       Uiso       1.00
       C30          C  0.1868020  0.0421650 -0.0265440    0.00000       Uiso       1.00
       C31          C  0.1879910  0.9977360  0.0054350    0.00000       Uiso       1.00
       C32          C  0.0024570  0.1877080 -0.0761630    0.00000       Uiso       1.00
       C33          C  0.8090270  0.8137360  0.0562100    0.00000       Uiso       1.00
       C34          C  0.8116560  0.0019960 -0.0121940    0.00000       Uiso       1.00
       C35          C  0.9969380  0.8118190  0.0721890    0.00000       Uiso       1.00
       C36          C  0.1904730  0.1874540 -0.0177920    0.00000       Uiso       1.00
       C37          C  0.1407190  0.9544000  0.0529220    0.00000       Uiso       1.00
       C38          C  0.0469300  0.1823470 -0.1341960    0.00000       Uiso       1.00
       C39          C  0.8112420  0.8594040  0.0144970    0.00000       Uiso       1.00
       C40          C  0.8591280  0.0452240 -0.0573530    0.00000       Uiso       1.00
       C41          C  0.9522601  0.8130020  0.0266350    0.00000       Uiso       1.00
       C42          C  0.1880750  0.1412050  0.0130320    0.00000       Uiso       1.00
       H43          H  0.1466310  0.2187290 -0.0848540    0.00000       Uiso       1.00
       H44          H  0.7782060  0.9280240  0.0785460    0.00000       Uiso       1.00
       H45          H  0.0734810  0.8610240  0.1931620    0.00000       Uiso       1.00
       H46          H  0.8536570  0.7846880  0.1520650    0.00000       Uiso       1.00
       H47          H  0.2210240  0.0719960 -0.0801020    0.00000       Uiso       1.00
       H48          H  0.9252820  0.1472900  0.0469810    0.00000       Uiso       1.00
       H49          H  0.2218530  0.1446330  0.0628000    0.00000       Uiso       1.00
       H50          H  0.8577410  0.0752570 -0.1158290    0.00000       Uiso       1.00
       H51          H  0.9199510  0.7775540 -0.0343240    0.00000       Uiso       1.00
       H52          H  0.7772110  0.8559160 -0.0283270    0.00000       Uiso       1.00
       H53          H  0.1426410  0.9230490  0.0806180    0.00000       Uiso       1.00
       H54          H  0.0787250  0.2122150 -0.2143220    0.00000       Uiso       1.00
       C55          C  0.0035260  0.2357950 -0.0687760    0.00000       Uiso       1.00
       C56          C  0.7616930  0.7670350  0.0605190    0.00000       Uiso       1.00
       C57          C  0.2349110  0.9968490 -0.0111470    0.00000       Uiso       1.00
       C58          C  0.9964190  0.7637990  0.0582920    0.00000       Uiso       1.00
       C59          C  0.2379250  0.2345700 -0.0047550    0.00000       Uiso       1.00
       C60          C  0.7649140  0.0028020 -0.0082360    0.00000       Uiso       1.00
       C61          C  0.0056680  0.3330430 -0.0424640    0.00000       Uiso       1.00
       C62          C  0.6664120  0.6727710  0.0682950    0.00000       Uiso       1.00
       C63          C  0.3294160  0.9951230 -0.0382460    0.00000       Uiso       1.00
       C64          C  0.9949150  0.6663770  0.0152710    0.00000       Uiso       1.00
       C65          C  0.3335350  0.3293100  0.0155920    0.00000       Uiso       1.00
       C66          C  0.6708290  0.0046680 -0.0003330    0.00000       Uiso       1.00
       C67          C  0.0484290  0.3334410  0.0652080    0.00000       Uiso       1.00
       C68          C  0.6715730  0.7229200  0.2624790    0.00000       Uiso       1.00
       C69          C  0.2862730  0.9509780 -0.2330060    0.00000       Uiso       1.00
       C70          C  0.9522760  0.6737730  0.1541670    0.00000       Uiso       1.00
       C71          C  0.3284700  0.2797200 -0.1940300    0.00000       Uiso       1.00
       C72          C  0.7139270  0.0492530  0.1916250    0.00000       Uiso       1.00
       C73          C  0.0472130  0.2859040  0.0564170    0.00000       Uiso       1.00
       C74          C  0.7183650  0.7693310  0.2588660    0.00000       Uiso       1.00
       C75          C  0.2397750  0.9517610 -0.2210140    0.00000       Uiso       1.00
       C76          C  0.9531430  0.7216150  0.1783650    0.00000       Uiso       1.00
       C77          C  0.2814870  0.2330720 -0.2046500    0.00000       Uiso       1.00
       C78          C  0.7602230  0.0484160  0.1887670    0.00000       Uiso       1.00
       C79          C  0.7560470  0.7163991 -0.1365660    0.00000       Uiso       1.00
       C80          C  0.2786800  0.0412710  0.1811310    0.00000       Uiso       1.00
       C81          C  0.9608290  0.2362470 -0.1781980    0.00000       Uiso       1.00
       C82          C  0.2434820  0.2846100  0.2086600    0.00000       Uiso       1.00
       C83          C  0.7211840  0.9579641 -0.1980490    0.00000       Uiso       1.00
       C84          C  0.0388840  0.7553309 -0.0857740    0.00000       Uiso       1.00
       C85          C  0.7092410  0.6699800 -0.1320410    0.00000       Uiso       1.00
       C86          C  0.3251570  0.0405000  0.1678730    0.00000       Uiso       1.00
       C87          C  0.9616370  0.2837800 -0.1632570    0.00000       Uiso       1.00
       C88          C  0.2904900  0.3313110  0.2178650    0.00000       Uiso       1.00
       C89          C  0.6749180  0.9588240 -0.1945800    0.00000       Uiso       1.00
       C90          C  0.0384270  0.7078320 -0.1041040    0.00000       Uiso       1.00
       H91          H  0.9283570  0.2017100 -0.2756070    0.00000       Uiso       1.00
       H92          H  0.7859690  0.7128190 -0.2896390    0.00000       Uiso       1.00
       H93          H  0.2770790  0.0747110  0.3369190    0.00000       Uiso       1.00
       H94          H  0.0707200  0.7834360 -0.1868080    0.00000       Uiso       1.00
       H95          H  0.2133510  0.2874950  0.3633460    0.00000       Uiso       1.00
       H96          H  0.7226320  0.9241140 -0.3443850    0.00000       Uiso       1.00
       H97          H  0.9301240  0.2819500 -0.2474550    0.00000       Uiso       1.00
       H98          H  0.7067690  0.6343350 -0.2776840    0.00000       Uiso       1.00
       H99          H  0.3555830  0.0732500  0.3118920    0.00000       Uiso       1.00
      H100          H  0.0698010  0.7035650 -0.2101830    0.00000       Uiso       1.00
      H101          H  0.2929810  0.3665670  0.3746060    0.00000       Uiso       1.00
      H102          H  0.6444790  0.9257680 -0.3361230    0.00000       Uiso       1.00
      H103          H  0.6410270  0.7257451  0.4098680    0.00000       Uiso       1.00
      H104          H  0.2887520  0.9179380 -0.3868520    0.00000       Uiso       1.00
      H105          H  0.0806450  0.3687590  0.1551670    0.00000       Uiso       1.00
      H106          H  0.3591960  0.2775000 -0.3429160    0.00000       Uiso       1.00
      H107          H  0.7115650  0.0826580  0.3367840    0.00000       Uiso       1.00
      H108          H  0.9203950  0.6442430  0.2428210    0.00000       Uiso       1.00
      H109          H  0.7204850  0.8048820  0.4060800    0.00000       Uiso       1.00
      H110          H  0.2095820  0.9191360 -0.3709470    0.00000       Uiso       1.00
      H111          H  0.0787880  0.2887470  0.1497110    0.00000       Uiso       1.00
      H112          H  0.2793680  0.1979560 -0.3637980    0.00000       Uiso       1.00
      H113          H  0.7903930  0.0814140  0.3362260    0.00000       Uiso       1.00
      H114          H  0.9214930  0.7251510  0.2891940    0.00000       Uiso       1.00
      C115          C  0.5416790  0.9879590 -0.0844190    0.00000       Uiso       1.00
      C116          C  0.0127940  0.5505740 -0.0595600    0.00000       Uiso       1.00
      C117          C  0.4487790  0.4619740  0.1101240    0.00000       Uiso       1.00
      C118          C  0.4589510  0.0118880  0.0331170    0.00000       Uiso       1.00
      C119          C  0.9879340  0.4458090 -0.0579850    0.00000       Uiso       1.00
      C120          C  0.5516850  0.5401910  0.0005160    0.00000       Uiso       1.00
      C121          C  0.5481570  0.0380440  0.1342010    0.00000       Uiso       1.00
      C122          C  0.9614730  0.5118350 -0.0206460    0.00000       Uiso       1.00
      C123          C  0.4843890  0.4472900 -0.1113360    0.00000       Uiso       1.00
      C124          C  0.4524980  0.9618460 -0.1862820    0.00000       Uiso       1.00
      C125          C  0.0392790  0.4845920 -0.0948850    0.00000       Uiso       1.00
      C126          C  0.5161330  0.5548850  0.2228540    0.00000       Uiso       1.00
      C127          C  0.5075410  0.0498330  0.1918760    0.00000       Uiso       1.00
      C128          C  0.9492000  0.4602770 -0.0215710    0.00000       Uiso       1.00
      C129          C  0.5349520  0.4856790 -0.1649150    0.00000       Uiso       1.00
      C130          C  0.4931220  0.9500550 -0.2439340    0.00000       Uiso       1.00
      C131          C  0.0515180  0.5360630 -0.0964390    0.00000       Uiso       1.00
      C132          C  0.4655620  0.5164780  0.2766390    0.00000       Uiso       1.00
      H133          H  0.5826750  0.0664340  0.2549540    0.00000       Uiso       1.00
      H134          H  0.9324430  0.5209030  0.0077760    0.00000       Uiso       1.00
      H135          H  0.4736550  0.4082660 -0.2373690    0.00000       Uiso       1.00
      H136          H  0.4179760  0.9334770 -0.3070740    0.00000       Uiso       1.00
      H137          H  0.0682620  0.4754570 -0.1232360    0.00000       Uiso       1.00
      H138          H  0.5269140  0.5939170  0.3489570    0.00000       Uiso       1.00
      H139          H  0.5138570  0.0865110  0.3528080    0.00000       Uiso       1.00
      H140          H  0.9115730  0.4334180  0.0060690    0.00000       Uiso       1.00
      H141          H  0.5593860  0.4733110 -0.3282680    0.00000       Uiso       1.00
      H142          H  0.4868220  0.9133859 -0.4049280    0.00000       Uiso       1.00
      H143          H  0.0891300  0.5628660 -0.1252670    0.00000       Uiso       1.00
      H144          H  0.4411230  0.5288190  0.4401910    0.00000       Uiso       1.00
      N145          N  0.3801390  0.3717990  0.0034200    0.00000       Uiso       1.00
      N146          N  0.6281040  0.0093130  0.0170880    0.00000       Uiso       1.00
      N147          N  0.9907040  0.6193350  0.0084560    0.00000       Uiso       1.00
      N148          N  0.6199560  0.6305400  0.0909280    0.00000       Uiso       1.00
      N149          N  0.3722920  0.9905150 -0.0631560    0.00000       Uiso       1.00
      N150          N  0.0103890  0.3805330 -0.0293290    0.00000       Uiso       1.00
      C151          C  0.3979600  0.4241290  0.1671660    0.00000       Uiso       1.00
      C152          C  0.5817600  0.9752249 -0.1444380    0.00000       Uiso       1.00
      C153          C  0.0258170  0.6022620 -0.0631840    0.00000       Uiso       1.00
      C154          C  0.6023760  0.5779660 -0.0601140    0.00000       Uiso       1.00
      C155          C  0.4187980  0.0245410  0.0961140    0.00000       Uiso       1.00
      C156          C  0.9747740  0.3938890 -0.0601670    0.00000       Uiso       1.00
      H157          H  0.3741230  0.4367730  0.3364460    0.00000       Uiso       1.00
      H158          H  0.5753580  0.9390720 -0.3154630    0.00000       Uiso       1.00
      H159          H  0.0629680  0.6275339 -0.1185840    0.00000       Uiso       1.00
      H160          H  0.6263060  0.5650310 -0.2243760    0.00000       Uiso       1.00
      H161          H  0.4252630  0.0606220  0.2688050    0.00000       Uiso       1.00
      H162          H  0.9370290  0.3657070 -0.0828510    0.00000       Uiso       1.00
