data_HB-COF-AB
_audit_creation_date              0000-00-00
_audit_creation_method            'LanYouShi'
_symmetry_space_group_name_H-M    'P1'
_cell_length_a                    6.9000001
_cell_length_b                    68.5199966
_cell_length_c                    29.3999996
_cell_angle_alpha                 90.0000000
_cell_angle_beta                  90.0000000
_cell_angle_gamma                 90.0000000
loop_
_atom_site_label
_atom_site_type_symbol
_atom_site_fract_x
_atom_site_fract_y
_atom_site_fract_z
_atom_site_U_iso_or_equiv
_atom_site_adp_type
_atom_site_occupancy
        C1          C  0.0000000  0.6317900  0.7187999    0.00000       Uiso       1.00
        C2          C  0.0000000  0.6116200  0.7091900    0.00000       Uiso       1.00
        C3          C  0.0000000  0.5976800  0.7444699    0.00000       Uiso       1.00
        C4          C  0.0000000  0.6034400  0.7905600    0.00000       Uiso       1.00
        C5          C  0.0000000  0.6236100  0.7990300    0.00000       Uiso       1.00
        C6          C  0.0000000  0.6370800  0.7649300    0.00000       Uiso       1.00
        C7          C  0.0000000  0.5886400  0.8275800    0.00000       Uiso       1.00
        C8          C  0.0000000  0.5686000  0.8173900    0.00000       Uiso       1.00
        C9          C  0.0000000  0.5546800  0.8522400    0.00000       Uiso       1.00
       C10          C  0.0000000  0.5606400  0.8978600    0.00000       Uiso       1.00
       C11          C  0.0000000  0.5805000  0.9082200    0.00000       Uiso       1.00
       C12          C  0.0000000  0.5943500  0.8734300    0.00000       Uiso       1.00
       C13          C  0.0000000  0.6464100  0.6814600    0.00000       Uiso       1.00
       C14          C  0.0000000  0.6404600  0.6357000    0.00000       Uiso       1.00
       C15          C  0.0000000  0.6542800  0.6006199    0.00000       Uiso       1.00
       C16          C  0.0000000  0.6742100  0.6108300    0.00000       Uiso       1.00
       C17          C  0.0000000  0.6802200  0.6563000    0.00000       Uiso       1.00
       C18          C  0.0000000  0.6664600  0.6911300    0.00000       Uiso       1.00
       N19          N  0.0000000  0.6560600  0.7842400    0.00000       Uiso       1.00
       C20          C  0.0000000  0.6525900  0.8296801    0.00000       Uiso       1.00
       N21          N  0.0000000  0.6334400  0.8415000    0.00000       Uiso       1.00
       C22          C  0.0000000  0.6683700  0.8635500    0.00000       Uiso       1.00
       C23          C  0.0000000  0.6879300  0.8496300    0.00000       Uiso       1.00
       C24          C  0.0000000  0.7029100  0.8818800    0.00000       Uiso       1.00
       C25          C  0.0000000  0.6984300  0.9283900    0.00000       Uiso       1.00
       C26          C  0.0000000  0.6789300  0.9423200    0.00000       Uiso       1.00
       C27          C  0.0000000  0.6639600  0.9100800    0.00000       Uiso       1.00
       C28          C  0.0000000  0.7222100  0.5495900    0.00000       Uiso       1.00
       C29          C  0.0000000  0.5465700  0.9354300    0.00000       Uiso       1.00
       N30          N  0.0000000  0.5278800  0.9285000    0.00000       Uiso       1.00
       C31          C  0.0000000  0.5139700  0.9648900    0.00000       Uiso       1.00
       C32          C  0.0000000  0.5198400  0.0107000    0.00000       Uiso       1.00
       C33          C  0.0000000  0.5059400  0.0455000    0.00000       Uiso       1.00
       C34          C  0.0000000  0.7416400  0.5639900    0.00000       Uiso       1.00
       C35          C  0.0000000  0.7567700  0.5322400    0.00000       Uiso       1.00
       C36          C  0.0000000  0.7526200  0.4854700    0.00000       Uiso       1.00
       C37          C  0.0000000  0.7331700  0.4710100    0.00000       Uiso       1.00
       C38          C  0.0000000  0.7180000  0.5028400    0.00000       Uiso       1.00
       C39          C  0.0000000  0.6886400  0.5740300    0.00000       Uiso       1.00
       N40          N  0.0000000  0.7071500  0.5832300    0.00000       Uiso       1.00
       N41          N  0.0000000  0.7321300  0.9521900    0.00000       Uiso       1.00
       C42          C  0.0000000  0.7137900  0.9630200    0.00000       Uiso       1.00
       H43          H  0.0000000  0.6066500  0.6721801    0.00000       Uiso       1.00
       H44          H  0.0000000  0.5814400  0.7359900    0.00000       Uiso       1.00
       H45          H  0.0000000  0.5637200  0.7803200    0.00000       Uiso       1.00
       H46          H  0.0000000  0.5384600  0.8435500    0.00000       Uiso       1.00
       H47          H  0.0000000  0.5854800  0.9452200    0.00000       Uiso       1.00
       H48          H  0.0000000  0.6105700  0.8820500    0.00000       Uiso       1.00
       H49          H  0.0000000  0.6242200  0.6272900    0.00000       Uiso       1.00
       H50          H  0.0000000  0.6492800  0.5636300    0.00000       Uiso       1.00
       H51          H  0.0000000  0.6964400  0.6649400    0.00000       Uiso       1.00
       H52          H  0.0000000  0.6714200  0.7281300    0.00000       Uiso       1.00
       H53          H  0.0000000  0.6712900  0.7713900    0.00000       Uiso       1.00
       H54          H  0.0000000  0.6916000  0.8118100    0.00000       Uiso       1.00
       H55          H  0.0000000  0.7188000  0.8703800    0.00000       Uiso       1.00
       H56          H  0.0000000  0.6752000  0.9801100    0.00000       Uiso       1.00
       H57          H  0.0000000  0.6480700  0.9215800    0.00000       Uiso       1.00
       H58          H  0.0000000  0.5519500  0.9721100    0.00000       Uiso       1.00
       H59          H  0.0000000  0.5360300  0.0196600    0.00000       Uiso       1.00
       H60          H  0.0000000  0.5108200  0.0825700    0.00000       Uiso       1.00
       H61          H  0.0000000  0.7451000  0.6019200    0.00000       Uiso       1.00
       H62          H  0.0000000  0.7726000  0.5442100    0.00000       Uiso       1.00
       H63          H  0.0000000  0.7296200  0.4331300    0.00000       Uiso       1.00
       H64          H  0.0000000  0.7021800  0.4908600    0.00000       Uiso       1.00
       H65          H  0.0000000  0.6836200  0.5370700    0.00000       Uiso       1.00
       H66          H  0.0000000  0.7097400  0.0006300    0.00000       Uiso       1.00
       C67          C  0.5000000  0.1317900  0.7187999    0.00000       Uiso       1.00
       C68          C  0.5000000  0.1116200  0.7091900    0.00000       Uiso       1.00
       C69          C  0.5000000  0.0976800  0.7444699    0.00000       Uiso       1.00
       C70          C  0.5000000  0.1034400  0.7905600    0.00000       Uiso       1.00
       C71          C  0.5000000  0.1236100  0.7990300    0.00000       Uiso       1.00
       C72          C  0.5000000  0.1370800  0.7649300    0.00000       Uiso       1.00
       C73          C  0.5000000  0.0886400  0.8275800    0.00000       Uiso       1.00
       C74          C  0.5000000  0.0686000  0.8173900    0.00000       Uiso       1.00
       C75          C  0.5000000  0.0546800  0.8522400    0.00000       Uiso       1.00
       C76          C  0.5000000  0.0606400  0.8978600    0.00000       Uiso       1.00
       C77          C  0.5000000  0.0805000  0.9082200    0.00000       Uiso       1.00
       C78          C  0.5000000  0.0943500  0.8734300    0.00000       Uiso       1.00
       C79          C  0.5000000  0.1464100  0.6814600    0.00000       Uiso       1.00
       C80          C  0.5000000  0.1404600  0.6357000    0.00000       Uiso       1.00
       C81          C  0.5000000  0.1542800  0.6006199    0.00000       Uiso       1.00
       C82          C  0.5000000  0.1742100  0.6108300    0.00000       Uiso       1.00
       C83          C  0.5000000  0.1802200  0.6563000    0.00000       Uiso       1.00
       C84          C  0.5000000  0.1664600  0.6911300    0.00000       Uiso       1.00
       N85          N  0.5000000  0.1560600  0.7842400    0.00000       Uiso       1.00
       C86          C  0.5000000  0.1525900  0.8296801    0.00000       Uiso       1.00
       N87          N  0.5000000  0.1334400  0.8415000    0.00000       Uiso       1.00
       C88          C  0.5000000  0.1683700  0.8635500    0.00000       Uiso       1.00
       C89          C  0.5000000  0.1879300  0.8496300    0.00000       Uiso       1.00
       C90          C  0.5000000  0.2029100  0.8818800    0.00000       Uiso       1.00
       C91          C  0.5000000  0.1984300  0.9283900    0.00000       Uiso       1.00
       C92          C  0.5000000  0.1789300  0.9423200    0.00000       Uiso       1.00
       C93          C  0.5000000  0.1639600  0.9100800    0.00000       Uiso       1.00
       C94          C  0.5000000  0.2222100  0.5495900    0.00000       Uiso       1.00
       C95          C  0.5000000  0.0465700  0.9354300    0.00000       Uiso       1.00
       N96          N  0.5000000  0.0278800  0.9285000    0.00000       Uiso       1.00
       C97          C  0.5000000  0.0139700  0.9648900    0.00000       Uiso       1.00
       C98          C  0.5000000  0.0198400  0.0107000    0.00000       Uiso       1.00
       C99          C  0.5000000  0.0059400  0.0455000    0.00000       Uiso       1.00
      C100          C  0.5000000  0.2416400  0.5639900    0.00000       Uiso       1.00
      C101          C  0.5000000  0.2567700  0.5322400    0.00000       Uiso       1.00
      C102          C  0.5000000  0.2526200  0.4854700    0.00000       Uiso       1.00
      C103          C  0.5000000  0.2331700  0.4710100    0.00000       Uiso       1.00
      C104          C  0.5000000  0.2180000  0.5028400    0.00000       Uiso       1.00
      C105          C  0.5000000  0.1886400  0.5740300    0.00000       Uiso       1.00
      N106          N  0.5000000  0.2071500  0.5832300    0.00000       Uiso       1.00
      N107          N  0.5000000  0.2321300  0.9521900    0.00000       Uiso       1.00
      C108          C  0.5000000  0.2137900  0.9630200    0.00000       Uiso       1.00
      H109          H  0.5000000  0.1066500  0.6721801    0.00000       Uiso       1.00
      H110          H  0.5000000  0.0814400  0.7359900    0.00000       Uiso       1.00
      H111          H  0.5000000  0.0637200  0.7803200    0.00000       Uiso       1.00
      H112          H  0.5000000  0.0384600  0.8435500    0.00000       Uiso       1.00
      H113          H  0.5000000  0.0854800  0.9452200    0.00000       Uiso       1.00
      H114          H  0.5000000  0.1105700  0.8820500    0.00000       Uiso       1.00
      H115          H  0.5000000  0.1242200  0.6272900    0.00000       Uiso       1.00
      H116          H  0.5000000  0.1492800  0.5636300    0.00000       Uiso       1.00
      H117          H  0.5000000  0.1964400  0.6649400    0.00000       Uiso       1.00
      H118          H  0.5000000  0.1714200  0.7281300    0.00000       Uiso       1.00
      H119          H  0.5000000  0.1712900  0.7713900    0.00000       Uiso       1.00
      H120          H  0.5000000  0.1916000  0.8118100    0.00000       Uiso       1.00
      H121          H  0.5000000  0.2188000  0.8703800    0.00000       Uiso       1.00
      H122          H  0.5000000  0.1752000  0.9801100    0.00000       Uiso       1.00
      H123          H  0.5000000  0.1480700  0.9215800    0.00000       Uiso       1.00
      H124          H  0.5000000  0.0519500  0.9721100    0.00000       Uiso       1.00
      H125          H  0.5000000  0.0360300  0.0196600    0.00000       Uiso       1.00
      H126          H  0.5000000  0.0108200  0.0825700    0.00000       Uiso       1.00
      H127          H  0.5000000  0.2451000  0.6019200    0.00000       Uiso       1.00
      H128          H  0.5000000  0.2726000  0.5442100    0.00000       Uiso       1.00
      H129          H  0.5000000  0.2296200  0.4331300    0.00000       Uiso       1.00
      H130          H  0.5000000  0.2021800  0.4908600    0.00000       Uiso       1.00
      H131          H  0.5000000  0.1836200  0.5370700    0.00000       Uiso       1.00
      H132          H  0.5000000  0.2097400  0.0006300    0.00000       Uiso       1.00
      C133          C  0.0000000  0.8682100  0.2188000    0.00000       Uiso       1.00
      C134          C  0.0000000  0.8883800  0.2091900    0.00000       Uiso       1.00
      C135          C  0.0000000  0.9023200  0.2444700    0.00000       Uiso       1.00
      C136          C  0.0000000  0.8965600  0.2905600    0.00000       Uiso       1.00
      C137          C  0.0000000  0.8763900  0.2990300    0.00000       Uiso       1.00
      C138          C  0.0000000  0.8629200  0.2649300    0.00000       Uiso       1.00
      C139          C  0.0000000  0.9113600  0.3275800    0.00000       Uiso       1.00
      C140          C  0.0000000  0.9314000  0.3173900    0.00000       Uiso       1.00
      C141          C  0.0000000  0.9453200  0.3522400    0.00000       Uiso       1.00
      C142          C  0.0000000  0.9393600  0.3978600    0.00000       Uiso       1.00
      C143          C  0.0000000  0.9195000  0.4082200    0.00000       Uiso       1.00
      C144          C  0.0000000  0.9056500  0.3734300    0.00000       Uiso       1.00
      C145          C  0.0000000  0.8535900  0.1814600    0.00000       Uiso       1.00
      C146          C  0.0000000  0.8595400  0.1357000    0.00000       Uiso       1.00
      C147          C  0.0000000  0.8457200  0.1006200    0.00000       Uiso       1.00
      C148          C  0.0000000  0.8257900  0.1108300    0.00000       Uiso       1.00
      C149          C  0.0000000  0.8197800  0.1563000    0.00000       Uiso       1.00
      C150          C  0.0000000  0.8335400  0.1911300    0.00000       Uiso       1.00
      N151          N  0.0000000  0.8439400  0.2842400    0.00000       Uiso       1.00
      C152          C  0.0000000  0.8474100  0.3296800    0.00000       Uiso       1.00
      N153          N  0.0000000  0.8665600  0.3415000    0.00000       Uiso       1.00
      C154          C  0.0000000  0.8316300  0.3635500    0.00000       Uiso       1.00
      C155          C  0.0000000  0.8120700  0.3496300    0.00000       Uiso       1.00
      C156          C  0.0000000  0.7970900  0.3818800    0.00000       Uiso       1.00
      C157          C  0.0000000  0.8015700  0.4283900    0.00000       Uiso       1.00
      C158          C  0.0000000  0.8210700  0.4423200    0.00000       Uiso       1.00
      C159          C  0.0000000  0.8360400  0.4100800    0.00000       Uiso       1.00
      C160          C  0.0000000  0.7777900  0.0495900    0.00000       Uiso       1.00
      C161          C  0.0000000  0.9534299  0.4354300    0.00000       Uiso       1.00
      N162          N  0.0000000  0.9721200  0.4285000    0.00000       Uiso       1.00
      C163          C  0.0000000  0.9860300  0.4648900    0.00000       Uiso       1.00
      C164          C  0.0000000  0.9801600  0.5107000    0.00000       Uiso       1.00
      C165          C  0.0000000  0.9940599  0.5455000    0.00000       Uiso       1.00
      C166          C  0.0000000  0.7583600  0.0639900    0.00000       Uiso       1.00
      C167          C  0.0000000  0.7432300  0.0322400    0.00000       Uiso       1.00
      C168          C  0.0000000  0.7473800  0.9854700    0.00000       Uiso       1.00
      C169          C  0.0000000  0.7668300  0.9710100    0.00000       Uiso       1.00
      C170          C  0.0000000  0.7820000  0.0028400    0.00000       Uiso       1.00
      C171          C  0.0000000  0.8113600  0.0740300    0.00000       Uiso       1.00
      N172          N  0.0000000  0.7928500  0.0832300    0.00000       Uiso       1.00
      N173          N  0.0000000  0.7678700  0.4521900    0.00000       Uiso       1.00
      C174          C  0.0000000  0.7862100  0.4630200    0.00000       Uiso       1.00
      H175          H  0.0000000  0.8933500  0.1721800    0.00000       Uiso       1.00
      H176          H  0.0000000  0.9185600  0.2359900    0.00000       Uiso       1.00
      H177          H  0.0000000  0.9362800  0.2803200    0.00000       Uiso       1.00
      H178          H  0.0000000  0.9615400  0.3435500    0.00000       Uiso       1.00
      H179          H  0.0000000  0.9145200  0.4452200    0.00000       Uiso       1.00
      H180          H  0.0000000  0.8894300  0.3820500    0.00000       Uiso       1.00
      H181          H  0.0000000  0.8757800  0.1272900    0.00000       Uiso       1.00
      H182          H  0.0000000  0.8507200  0.0636300    0.00000       Uiso       1.00
      H183          H  0.0000000  0.8035600  0.1649400    0.00000       Uiso       1.00
      H184          H  0.0000000  0.8285800  0.2281300    0.00000       Uiso       1.00
      H185          H  0.0000000  0.8287100  0.2713900    0.00000       Uiso       1.00
      H186          H  0.0000000  0.8084000  0.3118100    0.00000       Uiso       1.00
      H187          H  0.0000000  0.7812000  0.3703800    0.00000       Uiso       1.00
      H188          H  0.0000000  0.8248000  0.4801100    0.00000       Uiso       1.00
      H189          H  0.0000000  0.8519300  0.4215800    0.00000       Uiso       1.00
      H190          H  0.0000000  0.9480500  0.4721100    0.00000       Uiso       1.00
      H191          H  0.0000000  0.9639701  0.5196600    0.00000       Uiso       1.00
      H192          H  0.0000000  0.9891800  0.5825700    0.00000       Uiso       1.00
      H193          H  0.0000000  0.7549000  0.1019200    0.00000       Uiso       1.00
      H194          H  0.0000000  0.7274000  0.0442100    0.00000       Uiso       1.00
      H195          H  0.0000000  0.7703800  0.9331300    0.00000       Uiso       1.00
      H196          H  0.0000000  0.7978200  0.9908600    0.00000       Uiso       1.00
      H197          H  0.0000000  0.8163800  0.0370700    0.00000       Uiso       1.00
      H198          H  0.0000000  0.7902600  0.5006300    0.00000       Uiso       1.00
      C199          C  0.5000000  0.3682100  0.2188000    0.00000       Uiso       1.00
      C200          C  0.5000000  0.3883800  0.2091900    0.00000       Uiso       1.00
      C201          C  0.5000000  0.4023200  0.2444700    0.00000       Uiso       1.00
      C202          C  0.5000000  0.3965600  0.2905600    0.00000       Uiso       1.00
      C203          C  0.5000000  0.3763900  0.2990300    0.00000       Uiso       1.00
      C204          C  0.5000000  0.3629200  0.2649300    0.00000       Uiso       1.00
      C205          C  0.5000000  0.4113600  0.3275800    0.00000       Uiso       1.00
      C206          C  0.5000000  0.4314000  0.3173900    0.00000       Uiso       1.00
      C207          C  0.5000000  0.4453200  0.3522400    0.00000       Uiso       1.00
      C208          C  0.5000000  0.4393600  0.3978600    0.00000       Uiso       1.00
      C209          C  0.5000000  0.4195000  0.4082200    0.00000       Uiso       1.00
      C210          C  0.5000000  0.4056500  0.3734300    0.00000       Uiso       1.00
      C211          C  0.5000000  0.3535900  0.1814600    0.00000       Uiso       1.00
      C212          C  0.5000000  0.3595400  0.1357000    0.00000       Uiso       1.00
      C213          C  0.5000000  0.3457200  0.1006200    0.00000       Uiso       1.00
      C214          C  0.5000000  0.3257900  0.1108300    0.00000       Uiso       1.00
      C215          C  0.5000000  0.3197800  0.1563000    0.00000       Uiso       1.00
      C216          C  0.5000000  0.3335400  0.1911300    0.00000       Uiso       1.00
      N217          N  0.5000000  0.3439400  0.2842400    0.00000       Uiso       1.00
      C218          C  0.5000000  0.3474100  0.3296800    0.00000       Uiso       1.00
      N219          N  0.5000000  0.3665600  0.3415000    0.00000       Uiso       1.00
      C220          C  0.5000000  0.3316300  0.3635500    0.00000       Uiso       1.00
      C221          C  0.5000000  0.3120700  0.3496300    0.00000       Uiso       1.00
      C222          C  0.5000000  0.2970900  0.3818800    0.00000       Uiso       1.00
      C223          C  0.5000000  0.3015700  0.4283900    0.00000       Uiso       1.00
      C224          C  0.5000000  0.3210700  0.4423200    0.00000       Uiso       1.00
      C225          C  0.5000000  0.3360400  0.4100800    0.00000       Uiso       1.00
      C226          C  0.5000000  0.2777900  0.0495900    0.00000       Uiso       1.00
      C227          C  0.5000000  0.4534300  0.4354300    0.00000       Uiso       1.00
      N228          N  0.5000000  0.4721200  0.4285000    0.00000       Uiso       1.00
      C229          C  0.5000000  0.4860300  0.4648900    0.00000       Uiso       1.00
      C230          C  0.5000000  0.4801600  0.5107000    0.00000       Uiso       1.00
      C231          C  0.5000000  0.4940600  0.5455000    0.00000       Uiso       1.00
      C232          C  0.5000000  0.2583600  0.0639900    0.00000       Uiso       1.00
      C233          C  0.5000000  0.2432300  0.0322400    0.00000       Uiso       1.00
      C234          C  0.5000000  0.2473800  0.9854700    0.00000       Uiso       1.00
      C235          C  0.5000000  0.2668300  0.9710100    0.00000       Uiso       1.00
      C236          C  0.5000000  0.2820000  0.0028400    0.00000       Uiso       1.00
      C237          C  0.5000000  0.3113600  0.0740300    0.00000       Uiso       1.00
      N238          N  0.5000000  0.2928500  0.0832300    0.00000       Uiso       1.00
      N239          N  0.5000000  0.2678700  0.4521900    0.00000       Uiso       1.00
      C240          C  0.5000000  0.2862100  0.4630200    0.00000       Uiso       1.00
      H241          H  0.5000000  0.3933500  0.1721800    0.00000       Uiso       1.00
      H242          H  0.5000000  0.4185600  0.2359900    0.00000       Uiso       1.00
      H243          H  0.5000000  0.4362800  0.2803200    0.00000       Uiso       1.00
      H244          H  0.5000000  0.4615400  0.3435500    0.00000       Uiso       1.00
      H245          H  0.5000000  0.4145200  0.4452200    0.00000       Uiso       1.00
      H246          H  0.5000000  0.3894300  0.3820500    0.00000       Uiso       1.00
      H247          H  0.5000000  0.3757800  0.1272900    0.00000       Uiso       1.00
      H248          H  0.5000000  0.3507200  0.0636300    0.00000       Uiso       1.00
      H249          H  0.5000000  0.3035600  0.1649400    0.00000       Uiso       1.00
      H250          H  0.5000000  0.3285800  0.2281300    0.00000       Uiso       1.00
      H251          H  0.5000000  0.3287100  0.2713900    0.00000       Uiso       1.00
      H252          H  0.5000000  0.3084000  0.3118100    0.00000       Uiso       1.00
      H253          H  0.5000000  0.2812000  0.3703800    0.00000       Uiso       1.00
      H254          H  0.5000000  0.3248000  0.4801100    0.00000       Uiso       1.00
      H255          H  0.5000000  0.3519300  0.4215800    0.00000       Uiso       1.00
      H256          H  0.5000000  0.4480500  0.4721100    0.00000       Uiso       1.00
      H257          H  0.5000000  0.4639700  0.5196600    0.00000       Uiso       1.00
      H258          H  0.5000000  0.4891800  0.5825700    0.00000       Uiso       1.00
      H259          H  0.5000000  0.2549000  0.1019200    0.00000       Uiso       1.00
      H260          H  0.5000000  0.2274000  0.0442100    0.00000       Uiso       1.00
      H261          H  0.5000000  0.2703800  0.9331300    0.00000       Uiso       1.00
      H262          H  0.5000000  0.2978200  0.9908600    0.00000       Uiso       1.00
      H263          H  0.5000000  0.3163800  0.0370700    0.00000       Uiso       1.00
      H264          H  0.5000000  0.2902600  0.5006300    0.00000       Uiso       1.00
      C265          C  0.0000000  0.1317900  0.7812000    0.00000       Uiso       1.00
      C266          C  0.0000000  0.1116200  0.7908100    0.00000       Uiso       1.00
      C267          C  0.0000000  0.0976800  0.7555300    0.00000       Uiso       1.00
      C268          C  0.0000000  0.1034400  0.7094400    0.00000       Uiso       1.00
      C269          C  0.0000000  0.1236100  0.7009700    0.00000       Uiso       1.00
      C270          C  0.0000000  0.1370800  0.7350700    0.00000       Uiso       1.00
      C271          C  0.0000000  0.0886400  0.6724200    0.00000       Uiso       1.00
      C272          C  0.0000000  0.0686000  0.6826100    0.00000       Uiso       1.00
      C273          C  0.0000000  0.0546800  0.6477600    0.00000       Uiso       1.00
      C274          C  0.0000000  0.0606400  0.6021400    0.00000       Uiso       1.00
      C275          C  0.0000000  0.0805000  0.5917800    0.00000       Uiso       1.00
      C276          C  0.0000000  0.0943500  0.6265700    0.00000       Uiso       1.00
      C277          C  0.0000000  0.1464100  0.8185400    0.00000       Uiso       1.00
      C278          C  0.0000000  0.1404600  0.8643000    0.00000       Uiso       1.00
      C279          C  0.0000000  0.1542800  0.8993800    0.00000       Uiso       1.00
      C280          C  0.0000000  0.1742100  0.8891700    0.00000       Uiso       1.00
      C281          C  0.0000000  0.1802200  0.8437000    0.00000       Uiso       1.00
      C282          C  0.0000000  0.1664600  0.8088700    0.00000       Uiso       1.00
      N283          N  0.0000000  0.1560600  0.7157599    0.00000       Uiso       1.00
      C284          C  0.0000000  0.1525900  0.6703200    0.00000       Uiso       1.00
      N285          N  0.0000000  0.1334400  0.6585000    0.00000       Uiso       1.00
      C286          C  0.0000000  0.1683700  0.6364500    0.00000       Uiso       1.00
      C287          C  0.0000000  0.1879300  0.6503700    0.00000       Uiso       1.00
      C288          C  0.0000000  0.2029100  0.6181200    0.00000       Uiso       1.00
      C289          C  0.0000000  0.1984300  0.5716100    0.00000       Uiso       1.00
      C290          C  0.0000000  0.1789300  0.5576800    0.00000       Uiso       1.00
      C291          C  0.0000000  0.1639600  0.5899200    0.00000       Uiso       1.00
      C292          C  0.0000000  0.2222100  0.9504100    0.00000       Uiso       1.00
      C293          C  0.0000000  0.0465700  0.5645700    0.00000       Uiso       1.00
      N294          N  0.0000000  0.0278800  0.5715000    0.00000       Uiso       1.00
      C295          C  0.0000000  0.0139700  0.5351100    0.00000       Uiso       1.00
      C296          C  0.0000000  0.0198400  0.4893000    0.00000       Uiso       1.00
      C297          C  0.0000000  0.0059400  0.4545000    0.00000       Uiso       1.00
      C298          C  0.0000000  0.2416400  0.9360100    0.00000       Uiso       1.00
      C299          C  0.0000000  0.2567700  0.9677600    0.00000       Uiso       1.00
      C300          C  0.0000000  0.2526200  0.0145300    0.00000       Uiso       1.00
      C301          C  0.0000000  0.2331700  0.0289900    0.00000       Uiso       1.00
      C302          C  0.0000000  0.2180000  0.9971600    0.00000       Uiso       1.00
      C303          C  0.0000000  0.1886400  0.9259700    0.00000       Uiso       1.00
      N304          N  0.0000000  0.2071500  0.9167700    0.00000       Uiso       1.00
      N305          N  0.0000000  0.2321300  0.5478100    0.00000       Uiso       1.00
      C306          C  0.0000000  0.2137900  0.5369800    0.00000       Uiso       1.00
      H307          H  0.0000000  0.1066500  0.8278200    0.00000       Uiso       1.00
      H308          H  0.0000000  0.0814400  0.7640101    0.00000       Uiso       1.00
      H309          H  0.0000000  0.0637200  0.7196800    0.00000       Uiso       1.00
      H310          H  0.0000000  0.0384600  0.6564500    0.00000       Uiso       1.00
      H311          H  0.0000000  0.0854800  0.5547800    0.00000       Uiso       1.00
      H312          H  0.0000000  0.1105700  0.6179500    0.00000       Uiso       1.00
      H313          H  0.0000000  0.1242200  0.8727100    0.00000       Uiso       1.00
      H314          H  0.0000000  0.1492800  0.9363700    0.00000       Uiso       1.00
      H315          H  0.0000000  0.1964400  0.8350600    0.00000       Uiso       1.00
      H316          H  0.0000000  0.1714200  0.7718700    0.00000       Uiso       1.00
      H317          H  0.0000000  0.1712900  0.7286100    0.00000       Uiso       1.00
      H318          H  0.0000000  0.1916000  0.6881900    0.00000       Uiso       1.00
      H319          H  0.0000000  0.2188000  0.6296200    0.00000       Uiso       1.00
      H320          H  0.0000000  0.1752000  0.5198900    0.00000       Uiso       1.00
      H321          H  0.0000000  0.1480700  0.5784200    0.00000       Uiso       1.00
      H322          H  0.0000000  0.0519500  0.5278900    0.00000       Uiso       1.00
      H323          H  0.0000000  0.0360300  0.4803400    0.00000       Uiso       1.00
      H324          H  0.0000000  0.0108200  0.4174300    0.00000       Uiso       1.00
      H325          H  0.0000000  0.2451000  0.8980800    0.00000       Uiso       1.00
      H326          H  0.0000000  0.2726000  0.9557900    0.00000       Uiso       1.00
      H327          H  0.0000000  0.2296200  0.0668700    0.00000       Uiso       1.00
      H328          H  0.0000000  0.2021800  0.0091400    0.00000       Uiso       1.00
      H329          H  0.0000000  0.1836200  0.9629300    0.00000       Uiso       1.00
      H330          H  0.0000000  0.2097400  0.4993700    0.00000       Uiso       1.00
      C331          C  0.5000000  0.6317900  0.7812000    0.00000       Uiso       1.00
      C332          C  0.5000000  0.6116200  0.7908100    0.00000       Uiso       1.00
      C333          C  0.5000000  0.5976800  0.7555300    0.00000       Uiso       1.00
      C334          C  0.5000000  0.6034400  0.7094400    0.00000       Uiso       1.00
      C335          C  0.5000000  0.6236100  0.7009700    0.00000       Uiso       1.00
      C336          C  0.5000000  0.6370800  0.7350700    0.00000       Uiso       1.00
      C337          C  0.5000000  0.5886400  0.6724200    0.00000       Uiso       1.00
      C338          C  0.5000000  0.5686000  0.6826100    0.00000       Uiso       1.00
      C339          C  0.5000000  0.5546800  0.6477600    0.00000       Uiso       1.00
      C340          C  0.5000000  0.5606400  0.6021400    0.00000       Uiso       1.00
      C341          C  0.5000000  0.5805000  0.5917800    0.00000       Uiso       1.00
      C342          C  0.5000000  0.5943500  0.6265700    0.00000       Uiso       1.00
      C343          C  0.5000000  0.6464100  0.8185400    0.00000       Uiso       1.00
      C344          C  0.5000000  0.6404600  0.8643000    0.00000       Uiso       1.00
      C345          C  0.5000000  0.6542800  0.8993800    0.00000       Uiso       1.00
      C346          C  0.5000000  0.6742100  0.8891700    0.00000       Uiso       1.00
      C347          C  0.5000000  0.6802200  0.8437000    0.00000       Uiso       1.00
      C348          C  0.5000000  0.6664600  0.8088700    0.00000       Uiso       1.00
      N349          N  0.5000000  0.6560600  0.7157599    0.00000       Uiso       1.00
      C350          C  0.5000000  0.6525900  0.6703200    0.00000       Uiso       1.00
      N351          N  0.5000000  0.6334400  0.6585000    0.00000       Uiso       1.00
      C352          C  0.5000000  0.6683700  0.6364500    0.00000       Uiso       1.00
      C353          C  0.5000000  0.6879300  0.6503700    0.00000       Uiso       1.00
      C354          C  0.5000000  0.7029100  0.6181200    0.00000       Uiso       1.00
      C355          C  0.5000000  0.6984300  0.5716100    0.00000       Uiso       1.00
      C356          C  0.5000000  0.6789300  0.5576800    0.00000       Uiso       1.00
      C357          C  0.5000000  0.6639600  0.5899200    0.00000       Uiso       1.00
      C358          C  0.5000000  0.7222100  0.9504100    0.00000       Uiso       1.00
      C359          C  0.5000000  0.5465700  0.5645700    0.00000       Uiso       1.00
      N360          N  0.5000000  0.5278800  0.5715000    0.00000       Uiso       1.00
      C361          C  0.5000000  0.5139700  0.5351100    0.00000       Uiso       1.00
      C362          C  0.5000000  0.5198400  0.4893000    0.00000       Uiso       1.00
      C363          C  0.5000000  0.5059400  0.4545000    0.00000       Uiso       1.00
      C364          C  0.5000000  0.7416400  0.9360100    0.00000       Uiso       1.00
      C365          C  0.5000000  0.7567700  0.9677600    0.00000       Uiso       1.00
      C366          C  0.5000000  0.7526200  0.0145300    0.00000       Uiso       1.00
      C367          C  0.5000000  0.7331700  0.0289900    0.00000       Uiso       1.00
      C368          C  0.5000000  0.7180000  0.9971600    0.00000       Uiso       1.00
      C369          C  0.5000000  0.6886400  0.9259700    0.00000       Uiso       1.00
      N370          N  0.5000000  0.7071500  0.9167700    0.00000       Uiso       1.00
      N371          N  0.5000000  0.7321300  0.5478100    0.00000       Uiso       1.00
      C372          C  0.5000000  0.7137900  0.5369800    0.00000       Uiso       1.00
      H373          H  0.5000000  0.6066500  0.8278200    0.00000       Uiso       1.00
      H374          H  0.5000000  0.5814400  0.7640101    0.00000       Uiso       1.00
      H375          H  0.5000000  0.5637200  0.7196800    0.00000       Uiso       1.00
      H376          H  0.5000000  0.5384600  0.6564500    0.00000       Uiso       1.00
      H377          H  0.5000000  0.5854800  0.5547800    0.00000       Uiso       1.00
      H378          H  0.5000000  0.6105700  0.6179500    0.00000       Uiso       1.00
      H379          H  0.5000000  0.6242200  0.8727100    0.00000       Uiso       1.00
      H380          H  0.5000000  0.6492800  0.9363700    0.00000       Uiso       1.00
      H381          H  0.5000000  0.6964400  0.8350600    0.00000       Uiso       1.00
      H382          H  0.5000000  0.6714200  0.7718700    0.00000       Uiso       1.00
      H383          H  0.5000000  0.6712900  0.7286100    0.00000       Uiso       1.00
      H384          H  0.5000000  0.6916000  0.6881900    0.00000       Uiso       1.00
      H385          H  0.5000000  0.7188000  0.6296200    0.00000       Uiso       1.00
      H386          H  0.5000000  0.6752000  0.5198900    0.00000       Uiso       1.00
      H387          H  0.5000000  0.6480700  0.5784200    0.00000       Uiso       1.00
      H388          H  0.5000000  0.5519500  0.5278900    0.00000       Uiso       1.00
      H389          H  0.5000000  0.5360300  0.4803400    0.00000       Uiso       1.00
      H390          H  0.5000000  0.5108200  0.4174300    0.00000       Uiso       1.00
      H391          H  0.5000000  0.7451000  0.8980800    0.00000       Uiso       1.00
      H392          H  0.5000000  0.7726000  0.9557900    0.00000       Uiso       1.00
      H393          H  0.5000000  0.7296200  0.0668700    0.00000       Uiso       1.00
      H394          H  0.5000000  0.7021800  0.0091400    0.00000       Uiso       1.00
      H395          H  0.5000000  0.6836200  0.9629300    0.00000       Uiso       1.00
      H396          H  0.5000000  0.7097400  0.4993700    0.00000       Uiso       1.00
      C397          C  0.0000000  0.3682100  0.2812000    0.00000       Uiso       1.00
      C398          C  0.0000000  0.3883800  0.2908100    0.00000       Uiso       1.00
      C399          C  0.0000000  0.4023200  0.2555300    0.00000       Uiso       1.00
      C400          C  0.0000000  0.3965600  0.2094400    0.00000       Uiso       1.00
      C401          C  0.0000000  0.3763900  0.2009700    0.00000       Uiso       1.00
      C402          C  0.0000000  0.3629200  0.2350700    0.00000       Uiso       1.00
      C403          C  0.0000000  0.4113600  0.1724200    0.00000       Uiso       1.00
      C404          C  0.0000000  0.4314000  0.1826100    0.00000       Uiso       1.00
      C405          C  0.0000000  0.4453200  0.1477600    0.00000       Uiso       1.00
      C406          C  0.0000000  0.4393600  0.1021400    0.00000       Uiso       1.00
      C407          C  0.0000000  0.4195000  0.0917800    0.00000       Uiso       1.00
      C408          C  0.0000000  0.4056500  0.1265700    0.00000       Uiso       1.00
      C409          C  0.0000000  0.3535900  0.3185400    0.00000       Uiso       1.00
      C410          C  0.0000000  0.3595400  0.3643000    0.00000       Uiso       1.00
      C411          C  0.0000000  0.3457200  0.3993800    0.00000       Uiso       1.00
      C412          C  0.0000000  0.3257900  0.3891700    0.00000       Uiso       1.00
      C413          C  0.0000000  0.3197800  0.3437000    0.00000       Uiso       1.00
      C414          C  0.0000000  0.3335400  0.3088700    0.00000       Uiso       1.00
      N415          N  0.0000000  0.3439400  0.2157600    0.00000       Uiso       1.00
      C416          C  0.0000000  0.3474100  0.1703200    0.00000       Uiso       1.00
      N417          N  0.0000000  0.3665600  0.1585000    0.00000       Uiso       1.00
      C418          C  0.0000000  0.3316300  0.1364500    0.00000       Uiso       1.00
      C419          C  0.0000000  0.3120700  0.1503700    0.00000       Uiso       1.00
      C420          C  0.0000000  0.2970900  0.1181200    0.00000       Uiso       1.00
      C421          C  0.0000000  0.3015700  0.0716100    0.00000       Uiso       1.00
      C422          C  0.0000000  0.3210700  0.0576800    0.00000       Uiso       1.00
      C423          C  0.0000000  0.3360400  0.0899200    0.00000       Uiso       1.00
      C424          C  0.0000000  0.2777900  0.4504100    0.00000       Uiso       1.00
      C425          C  0.0000000  0.4534300  0.0645700    0.00000       Uiso       1.00
      N426          N  0.0000000  0.4721200  0.0715000    0.00000       Uiso       1.00
      C427          C  0.0000000  0.4860300  0.0351100    0.00000       Uiso       1.00
      C428          C  0.0000000  0.4801600  0.9893000    0.00000       Uiso       1.00
      C429          C  0.0000000  0.4940600  0.9545000    0.00000       Uiso       1.00
      C430          C  0.0000000  0.2583600  0.4360100    0.00000       Uiso       1.00
      C431          C  0.0000000  0.2432300  0.4677600    0.00000       Uiso       1.00
      C432          C  0.0000000  0.2473800  0.5145300    0.00000       Uiso       1.00
      C433          C  0.0000000  0.2668300  0.5289900    0.00000       Uiso       1.00
      C434          C  0.0000000  0.2820000  0.4971600    0.00000       Uiso       1.00
      C435          C  0.0000000  0.3113600  0.4259700    0.00000       Uiso       1.00
      N436          N  0.0000000  0.2928500  0.4167700    0.00000       Uiso       1.00
      N437          N  0.0000000  0.2678700  0.0478100    0.00000       Uiso       1.00
      C438          C  0.0000000  0.2862100  0.0369800    0.00000       Uiso       1.00
      H439          H  0.0000000  0.3933500  0.3278200    0.00000       Uiso       1.00
      H440          H  0.0000000  0.4185600  0.2640100    0.00000       Uiso       1.00
      H441          H  0.0000000  0.4362800  0.2196800    0.00000       Uiso       1.00
      H442          H  0.0000000  0.4615400  0.1564500    0.00000       Uiso       1.00
      H443          H  0.0000000  0.4145200  0.0547800    0.00000       Uiso       1.00
      H444          H  0.0000000  0.3894300  0.1179500    0.00000       Uiso       1.00
      H445          H  0.0000000  0.3757800  0.3727100    0.00000       Uiso       1.00
      H446          H  0.0000000  0.3507200  0.4363700    0.00000       Uiso       1.00
      H447          H  0.0000000  0.3035600  0.3350600    0.00000       Uiso       1.00
      H448          H  0.0000000  0.3285800  0.2718700    0.00000       Uiso       1.00
      H449          H  0.0000000  0.3287100  0.2286100    0.00000       Uiso       1.00
      H450          H  0.0000000  0.3084000  0.1881900    0.00000       Uiso       1.00
      H451          H  0.0000000  0.2812000  0.1296200    0.00000       Uiso       1.00
      H452          H  0.0000000  0.3248000  0.0198900    0.00000       Uiso       1.00
      H453          H  0.0000000  0.3519300  0.0784200    0.00000       Uiso       1.00
      H454          H  0.0000000  0.4480500  0.0278900    0.00000       Uiso       1.00
      H455          H  0.0000000  0.4639700  0.9803401    0.00000       Uiso       1.00
      H456          H  0.0000000  0.4891800  0.9174300    0.00000       Uiso       1.00
      H457          H  0.0000000  0.2549000  0.3980800    0.00000       Uiso       1.00
      H458          H  0.0000000  0.2274000  0.4557900    0.00000       Uiso       1.00
      H459          H  0.0000000  0.2703800  0.5668700    0.00000       Uiso       1.00
      H460          H  0.0000000  0.2978200  0.5091400    0.00000       Uiso       1.00
      H461          H  0.0000000  0.3163800  0.4629300    0.00000       Uiso       1.00
      H462          H  0.0000000  0.2902600  0.9993700    0.00000       Uiso       1.00
      C463          C  0.5000000  0.8682100  0.2812000    0.00000       Uiso       1.00
      C464          C  0.5000000  0.8883800  0.2908100    0.00000       Uiso       1.00
      C465          C  0.5000000  0.9023200  0.2555300    0.00000       Uiso       1.00
      C466          C  0.5000000  0.8965600  0.2094400    0.00000       Uiso       1.00
      C467          C  0.5000000  0.8763900  0.2009700    0.00000       Uiso       1.00
      C468          C  0.5000000  0.8629200  0.2350700    0.00000       Uiso       1.00
      C469          C  0.5000000  0.9113600  0.1724200    0.00000       Uiso       1.00
      C470          C  0.5000000  0.9314000  0.1826100    0.00000       Uiso       1.00
      C471          C  0.5000000  0.9453200  0.1477600    0.00000       Uiso       1.00
      C472          C  0.5000000  0.9393600  0.1021400    0.00000       Uiso       1.00
      C473          C  0.5000000  0.9195000  0.0917800    0.00000       Uiso       1.00
      C474          C  0.5000000  0.9056500  0.1265700    0.00000       Uiso       1.00
      C475          C  0.5000000  0.8535900  0.3185400    0.00000       Uiso       1.00
      C476          C  0.5000000  0.8595400  0.3643000    0.00000       Uiso       1.00
      C477          C  0.5000000  0.8457200  0.3993800    0.00000       Uiso       1.00
      C478          C  0.5000000  0.8257900  0.3891700    0.00000       Uiso       1.00
      C479          C  0.5000000  0.8197800  0.3437000    0.00000       Uiso       1.00
      C480          C  0.5000000  0.8335400  0.3088700    0.00000       Uiso       1.00
      N481          N  0.5000000  0.8439400  0.2157600    0.00000       Uiso       1.00
      C482          C  0.5000000  0.8474100  0.1703200    0.00000       Uiso       1.00
      N483          N  0.5000000  0.8665600  0.1585000    0.00000       Uiso       1.00
      C484          C  0.5000000  0.8316300  0.1364500    0.00000       Uiso       1.00
      C485          C  0.5000000  0.8120700  0.1503700    0.00000       Uiso       1.00
      C486          C  0.5000000  0.7970900  0.1181200    0.00000       Uiso       1.00
      C487          C  0.5000000  0.8015700  0.0716100    0.00000       Uiso       1.00
      C488          C  0.5000000  0.8210700  0.0576800    0.00000       Uiso       1.00
      C489          C  0.5000000  0.8360400  0.0899200    0.00000       Uiso       1.00
      C490          C  0.5000000  0.7777900  0.4504100    0.00000       Uiso       1.00
      C491          C  0.5000000  0.9534299  0.0645700    0.00000       Uiso       1.00
      N492          N  0.5000000  0.9721200  0.0715000    0.00000       Uiso       1.00
      C493          C  0.5000000  0.9860300  0.0351100    0.00000       Uiso       1.00
      C494          C  0.5000000  0.9801600  0.9893000    0.00000       Uiso       1.00
      C495          C  0.5000000  0.9940599  0.9545000    0.00000       Uiso       1.00
      C496          C  0.5000000  0.7583600  0.4360100    0.00000       Uiso       1.00
      C497          C  0.5000000  0.7432300  0.4677600    0.00000       Uiso       1.00
      C498          C  0.5000000  0.7473800  0.5145300    0.00000       Uiso       1.00
      C499          C  0.5000000  0.7668300  0.5289900    0.00000       Uiso       1.00
      C500          C  0.5000000  0.7820000  0.4971600    0.00000       Uiso       1.00
      C501          C  0.5000000  0.8113600  0.4259700    0.00000       Uiso       1.00
      N502          N  0.5000000  0.7928500  0.4167700    0.00000       Uiso       1.00
      N503          N  0.5000000  0.7678700  0.0478100    0.00000       Uiso       1.00
      C504          C  0.5000000  0.7862100  0.0369800    0.00000       Uiso       1.00
      H505          H  0.5000000  0.8933500  0.3278200    0.00000       Uiso       1.00
      H506          H  0.5000000  0.9185600  0.2640100    0.00000       Uiso       1.00
      H507          H  0.5000000  0.9362800  0.2196800    0.00000       Uiso       1.00
      H508          H  0.5000000  0.9615400  0.1564500    0.00000       Uiso       1.00
      H509          H  0.5000000  0.9145200  0.0547800    0.00000       Uiso       1.00
      H510          H  0.5000000  0.8894300  0.1179500    0.00000       Uiso       1.00
      H511          H  0.5000000  0.8757800  0.3727100    0.00000       Uiso       1.00
      H512          H  0.5000000  0.8507200  0.4363700    0.00000       Uiso       1.00
      H513          H  0.5000000  0.8035600  0.3350600    0.00000       Uiso       1.00
      H514          H  0.5000000  0.8285800  0.2718700    0.00000       Uiso       1.00
      H515          H  0.5000000  0.8287100  0.2286100    0.00000       Uiso       1.00
      H516          H  0.5000000  0.8084000  0.1881900    0.00000       Uiso       1.00
      H517          H  0.5000000  0.7812000  0.1296200    0.00000       Uiso       1.00
      H518          H  0.5000000  0.8248000  0.0198900    0.00000       Uiso       1.00
      H519          H  0.5000000  0.8519300  0.0784200    0.00000       Uiso       1.00
      H520          H  0.5000000  0.9480500  0.0278900    0.00000       Uiso       1.00
      H521          H  0.5000000  0.9639701  0.9803401    0.00000       Uiso       1.00
      H522          H  0.5000000  0.9891800  0.9174300    0.00000       Uiso       1.00
      H523          H  0.5000000  0.7549000  0.3980800    0.00000       Uiso       1.00
      H524          H  0.5000000  0.7274000  0.4557900    0.00000       Uiso       1.00
      H525          H  0.5000000  0.7703800  0.5668700    0.00000       Uiso       1.00
      H526          H  0.5000000  0.7978200  0.5091400    0.00000       Uiso       1.00
      H527          H  0.5000000  0.8163800  0.4629300    0.00000       Uiso       1.00
      H528          H  0.5000000  0.7902600  0.9993700    0.00000       Uiso       1.00
