data_HCC-H2P-COF
_audit_creation_date              0000-00-00
_audit_creation_method            'LanYouShi'
_symmetry_space_group_name_H-M    'P1'
_cell_length_a                    40.3773994
_cell_length_b                    32.4872017
_cell_length_c                    6.7262998
_cell_angle_alpha                 90.0000000
_cell_angle_beta                  90.0000000
_cell_angle_gamma                 90.0000000
loop_
_atom_site_label
_atom_site_type_symbol
_atom_site_fract_x
_atom_site_fract_y
_atom_site_fract_z
_atom_site_U_iso_or_equiv
_atom_site_adp_type
_atom_site_occupancy
        C1          C  0.2480180  0.7921580  0.4999980    0.00000       Uiso       1.00
        C2          C  0.7480180  0.2921580  0.4999980    0.00000       Uiso       1.00
        C3          C  0.7519830  0.2078420  0.4999980    0.00000       Uiso       1.00
        C4          C  0.2519820  0.7078410  0.4999980    0.00000       Uiso       1.00
        C5          C  0.7519830  0.7921580  0.4999980    0.00000       Uiso       1.00
        C6          C  0.2519820  0.2921580  0.4999980    0.00000       Uiso       1.00
        C7          C  0.2480180  0.2078420  0.4999980    0.00000       Uiso       1.00
        C8          C  0.7480180  0.7078410  0.4999980    0.00000       Uiso       1.00
        C9          C  0.2816450  0.7299720  0.4999980    0.00000       Uiso       1.00
       C10          C  0.7816450  0.2299720  0.4999980    0.00000       Uiso       1.00
       C11          C  0.7183550  0.2700270  0.4999980    0.00000       Uiso       1.00
       C12          C  0.2183550  0.7700270  0.4999980    0.00000       Uiso       1.00
       C13          C  0.7183550  0.7299720  0.4999980    0.00000       Uiso       1.00
       C14          C  0.2183550  0.2299720  0.4999980    0.00000       Uiso       1.00
       C15          C  0.2816450  0.2700270  0.4999980    0.00000       Uiso       1.00
       C16          C  0.7816450  0.7700270  0.4999980    0.00000       Uiso       1.00
       C17          C  0.1930610  0.6944740  0.4999980    0.00000       Uiso       1.00
       C18          C  0.6930610  0.1944740  0.4999980    0.00000       Uiso       1.00
       C19          C  0.8069391  0.3055260  0.4999980    0.00000       Uiso       1.00
       C20          C  0.3069390  0.8055260  0.4999980    0.00000       Uiso       1.00
       C21          C  0.8069391  0.6944740  0.4999980    0.00000       Uiso       1.00
       C22          C  0.3069390  0.1944740  0.4999980    0.00000       Uiso       1.00
       C23          C  0.1930610  0.3055260  0.4999980    0.00000       Uiso       1.00
       C24          C  0.6930610  0.8055260  0.4999980    0.00000       Uiso       1.00
       C25          C  0.2798050  0.7741900  0.4999980    0.00000       Uiso       1.00
       C26          C  0.7798050  0.2741900  0.4999980    0.00000       Uiso       1.00
       C27          C  0.7201950  0.2258100  0.4999980    0.00000       Uiso       1.00
       C28          C  0.2201950  0.7258100  0.4999980    0.00000       Uiso       1.00
       C29          C  0.7201950  0.7741900  0.4999980    0.00000       Uiso       1.00
       C30          C  0.2201950  0.2741900  0.4999980    0.00000       Uiso       1.00
       C31          C  0.2798050  0.2258100  0.4999980    0.00000       Uiso       1.00
       C32          C  0.7798050  0.7258100  0.4999980    0.00000       Uiso       1.00
       N33          N  0.3380820  0.7969760  0.4999980    0.00000       Uiso       1.00
       N34          N  0.8380820  0.2969760  0.4999980    0.00000       Uiso       1.00
       N35          N  0.6619190  0.2030240  0.4999980    0.00000       Uiso       1.00
       N36          N  0.1619190  0.7030240  0.4999980    0.00000       Uiso       1.00
       N37          N  0.6619190  0.7969760  0.4999980    0.00000       Uiso       1.00
       N38          N  0.1619190  0.2969760  0.4999980    0.00000       Uiso       1.00
       N39          N  0.3380820  0.2030240  0.4999980    0.00000       Uiso       1.00
       N40          N  0.8380820  0.7030240  0.4999980    0.00000       Uiso       1.00
       N41          N  0.0569100  0.5000000  0.4999980    0.00000       Uiso       1.00
       N42          N  0.5569100  0.0000000  0.4999980    0.00000       Uiso       1.00
       N43          N  0.9430909  0.5000000  0.4999980    0.00000       Uiso       1.00
       N44          N  0.4430910  0.0000000  0.4999980    0.00000       Uiso       1.00
       H45          H  0.0331610  0.5000000  0.4999980    0.00000       Uiso       1.00
       H46          H  0.5331610  0.0000000  0.4999980    0.00000       Uiso       1.00
       H47          H  0.9668400  0.5000000  0.4999980    0.00000       Uiso       1.00
       H48          H  0.4668390  0.0000000  0.4999980    0.00000       Uiso       1.00
       C49          C  0.0750100  0.4654540  0.4999980    0.00000       Uiso       1.00
       C50          C  0.5750100  0.9654540  0.4999980    0.00000       Uiso       1.00
       C51          C  0.9249900  0.5345460  0.4999980    0.00000       Uiso       1.00
       C52          C  0.4249900  0.0345460  0.4999980    0.00000       Uiso       1.00
       C53          C  0.9249900  0.4654540  0.4999980    0.00000       Uiso       1.00
       C54          C  0.4249900  0.9654540  0.4999980    0.00000       Uiso       1.00
       C55          C  0.0750100  0.5345460  0.4999980    0.00000       Uiso       1.00
       C56          C  0.5750100  0.0345460  0.4999980    0.00000       Uiso       1.00
       C57          C  0.1078390  0.4783720  0.4999980    0.00000       Uiso       1.00
       C58          C  0.6078390  0.9783720  0.4999980    0.00000       Uiso       1.00
       C59          C  0.8921620  0.5216270  0.4999980    0.00000       Uiso       1.00
       C60          C  0.3921610  0.0216270  0.4999980    0.00000       Uiso       1.00
       C61          C  0.8921620  0.4783720  0.4999980    0.00000       Uiso       1.00
       C62          C  0.3921610  0.9783720  0.4999980    0.00000       Uiso       1.00
       C63          C  0.1078390  0.5216270  0.4999980    0.00000       Uiso       1.00
       C64          C  0.6078390  0.0216270  0.4999980    0.00000       Uiso       1.00
       H65          H  0.1294820  0.4587640  0.4999980    0.00000       Uiso       1.00
       H66          H  0.6294820  0.9587640  0.4999980    0.00000       Uiso       1.00
       H67          H  0.8705190  0.5412350  0.4999980    0.00000       Uiso       1.00
       H68          H  0.3705190  0.0412360  0.4999980    0.00000       Uiso       1.00
       H69          H  0.8705190  0.4587640  0.4999980    0.00000       Uiso       1.00
       H70          H  0.3705190  0.9587640  0.4999980    0.00000       Uiso       1.00
       H71          H  0.1294820  0.5412350  0.4999980    0.00000       Uiso       1.00
       H72          H  0.6294820  0.0412360  0.4999980    0.00000       Uiso       1.00
       N73          N  0.5000000  0.9314100  0.4999980    0.00000       Uiso       1.00
       N74          N  0.0000000  0.4314100  0.4999980    0.00000       Uiso       1.00
       N75          N  0.5000000  0.0685900  0.4999980    0.00000       Uiso       1.00
       N76          N  0.0000000  0.5685900  0.4999980    0.00000       Uiso       1.00
       C77          C  0.5291490  0.9072290  0.4999980    0.00000       Uiso       1.00
       C78          C  0.0291490  0.4072290  0.4999980    0.00000       Uiso       1.00
       C79          C  0.4708520  0.0927710  0.4999980    0.00000       Uiso       1.00
       C80          C  0.9708521  0.5927710  0.4999980    0.00000       Uiso       1.00
       C81          C  0.4708520  0.9072290  0.4999980    0.00000       Uiso       1.00
       C82          C  0.9708521  0.4072290  0.4999980    0.00000       Uiso       1.00
       C83          C  0.5291490  0.0927710  0.4999980    0.00000       Uiso       1.00
       C84          C  0.0291490  0.5927710  0.4999980    0.00000       Uiso       1.00
       C85          C  0.5167190  0.8645140  0.4999980    0.00000       Uiso       1.00
       C86          C  0.0167190  0.3645140  0.4999980    0.00000       Uiso       1.00
       C87          C  0.4832820  0.1354860  0.4999980    0.00000       Uiso       1.00
       C88          C  0.9832820  0.6354860  0.4999980    0.00000       Uiso       1.00
       C89          C  0.4832820  0.8645140  0.4999980    0.00000       Uiso       1.00
       C90          C  0.9832820  0.3645140  0.4999980    0.00000       Uiso       1.00
       C91          C  0.5167190  0.1354860  0.4999980    0.00000       Uiso       1.00
       C92          C  0.0167190  0.6354860  0.4999980    0.00000       Uiso       1.00
       H93          H  0.5318950  0.8370770  0.4999980    0.00000       Uiso       1.00
       H94          H  0.0318950  0.3370770  0.4999980    0.00000       Uiso       1.00
       H95          H  0.4681050  0.1629230  0.4999980    0.00000       Uiso       1.00
       H96          H  0.9681050  0.6629230  0.4999980    0.00000       Uiso       1.00
       H97          H  0.4681050  0.8370770  0.4999980    0.00000       Uiso       1.00
       H98          H  0.9681050  0.3370770  0.4999980    0.00000       Uiso       1.00
       H99          H  0.5318950  0.1629230  0.4999980    0.00000       Uiso       1.00
      H100          H  0.0318950  0.6629230  0.4999980    0.00000       Uiso       1.00
      C101          C  0.0618160  0.4208400  0.4999980    0.00000       Uiso       1.00
      C102          C  0.5618170  0.9208400  0.4999980    0.00000       Uiso       1.00
      C103          C  0.9381840  0.5791600  0.4999980    0.00000       Uiso       1.00
      C104          C  0.4381840  0.0791600  0.4999980    0.00000       Uiso       1.00
      C105          C  0.9381840  0.4208400  0.4999980    0.00000       Uiso       1.00
      C106          C  0.4381840  0.9208400  0.4999980    0.00000       Uiso       1.00
      C107          C  0.0618160  0.5791600  0.4999980    0.00000       Uiso       1.00
      C108          C  0.5618170  0.0791600  0.4999980    0.00000       Uiso       1.00
      C109          C  0.0876170  0.3887680  0.4999980    0.00000       Uiso       1.00
      C110          C  0.5876170  0.8887680  0.4999980    0.00000       Uiso       1.00
      C111          C  0.9123840  0.6112320  0.4999980    0.00000       Uiso       1.00
      C112          C  0.4123840  0.1112320  0.4999980    0.00000       Uiso       1.00
      C113          C  0.9123840  0.3887680  0.4999980    0.00000       Uiso       1.00
      C114          C  0.4123840  0.8887680  0.4999980    0.00000       Uiso       1.00
      C115          C  0.0876170  0.6112320  0.4999980    0.00000       Uiso       1.00
      C116          C  0.5876170  0.1112320  0.4999980    0.00000       Uiso       1.00
      C117          C  0.6000020  0.8735450  0.6802740    0.00000       Uiso       1.00
      C118          C  0.1000010  0.3735450  0.6802740    0.00000       Uiso       1.00
      C119          C  0.3999990  0.1264550  0.6802740    0.00000       Uiso       1.00
      C120          C  0.8999990  0.6264550  0.6802740    0.00000       Uiso       1.00
      C121          C  0.3999990  0.8735450  0.3197210    0.00000       Uiso       1.00
      C122          C  0.8999990  0.3735450  0.3197210    0.00000       Uiso       1.00
      C123          C  0.6000020  0.1264550  0.3197210    0.00000       Uiso       1.00
      C124          C  0.1000010  0.6264550  0.3197210    0.00000       Uiso       1.00
      C125          C  0.3999990  0.1264550  0.3197210    0.00000       Uiso       1.00
      C126          C  0.8999990  0.6264550  0.3197210    0.00000       Uiso       1.00
      C127          C  0.6000020  0.8735450  0.3197210    0.00000       Uiso       1.00
      C128          C  0.1000010  0.3735450  0.3197210    0.00000       Uiso       1.00
      C129          C  0.6000020  0.1264550  0.6802740    0.00000       Uiso       1.00
      C130          C  0.1000010  0.6264550  0.6802740    0.00000       Uiso       1.00
      C131          C  0.3999990  0.8735450  0.6802740    0.00000       Uiso       1.00
      C132          C  0.8999990  0.3735450  0.6802740    0.00000       Uiso       1.00
      H133          H  0.0905420  0.3851940  0.8199150    0.00000       Uiso       1.00
      H134          H  0.5905420  0.8851940  0.8199150    0.00000       Uiso       1.00
      H135          H  0.9094590  0.6148060  0.8199150    0.00000       Uiso       1.00
      H136          H  0.4094580  0.1148060  0.8199150    0.00000       Uiso       1.00
      H137          H  0.9094590  0.3851940  0.1800800    0.00000       Uiso       1.00
      H138          H  0.4094580  0.8851940  0.1800800    0.00000       Uiso       1.00
      H139          H  0.0905420  0.6148060  0.1800800    0.00000       Uiso       1.00
      H140          H  0.5905420  0.1148060  0.1800800    0.00000       Uiso       1.00
      H141          H  0.9094590  0.6148060  0.1800800    0.00000       Uiso       1.00
      H142          H  0.4094580  0.1148060  0.1800800    0.00000       Uiso       1.00
      H143          H  0.0905420  0.3851940  0.1800800    0.00000       Uiso       1.00
      H144          H  0.5905420  0.8851940  0.1800800    0.00000       Uiso       1.00
      H145          H  0.0905420  0.6148060  0.8199150    0.00000       Uiso       1.00
      H146          H  0.5905420  0.1148060  0.8199150    0.00000       Uiso       1.00
      H147          H  0.9094590  0.3851940  0.8199150    0.00000       Uiso       1.00
      H148          H  0.4094580  0.8851940  0.8199150    0.00000       Uiso       1.00
      C149          C  0.1246200  0.3432270  0.6799340    0.00000       Uiso       1.00
      C150          C  0.6246200  0.8432270  0.6799340    0.00000       Uiso       1.00
      C151          C  0.8753810  0.6567720  0.6799340    0.00000       Uiso       1.00
      C152          C  0.3753800  0.1567720  0.6799340    0.00000       Uiso       1.00
      C153          C  0.8753810  0.3432270  0.3200620    0.00000       Uiso       1.00
      C154          C  0.3753800  0.8432270  0.3200620    0.00000       Uiso       1.00
      C155          C  0.1246200  0.6567720  0.3200620    0.00000       Uiso       1.00
      C156          C  0.6246200  0.1567720  0.3200620    0.00000       Uiso       1.00
      C157          C  0.8753810  0.6567720  0.3200620    0.00000       Uiso       1.00
      C158          C  0.3753800  0.1567720  0.3200620    0.00000       Uiso       1.00
      C159          C  0.1246200  0.3432270  0.3200620    0.00000       Uiso       1.00
      C160          C  0.6246200  0.8432270  0.3200620    0.00000       Uiso       1.00
      C161          C  0.1246200  0.6567720  0.6799340    0.00000       Uiso       1.00
      C162          C  0.6246200  0.1567720  0.6799340    0.00000       Uiso       1.00
      C163          C  0.8753810  0.3432270  0.6799340    0.00000       Uiso       1.00
      C164          C  0.3753800  0.8432270  0.6799340    0.00000       Uiso       1.00
      H165          H  0.1341970  0.3312790  0.8184510    0.00000       Uiso       1.00
      H166          H  0.6341970  0.8312790  0.8184510    0.00000       Uiso       1.00
      H167          H  0.8658030  0.6687210  0.8184510    0.00000       Uiso       1.00
      H168          H  0.3658030  0.1687210  0.8184510    0.00000       Uiso       1.00
      H169          H  0.8658030  0.3312790  0.1815440    0.00000       Uiso       1.00
      H170          H  0.3658030  0.8312790  0.1815440    0.00000       Uiso       1.00
      H171          H  0.1341970  0.6687210  0.1815440    0.00000       Uiso       1.00
      H172          H  0.6341970  0.1687210  0.1815440    0.00000       Uiso       1.00
      H173          H  0.8658030  0.6687210  0.1815440    0.00000       Uiso       1.00
      H174          H  0.3658030  0.1687210  0.1815440    0.00000       Uiso       1.00
      H175          H  0.1341970  0.3312790  0.1815440    0.00000       Uiso       1.00
      H176          H  0.6341970  0.8312790  0.1815440    0.00000       Uiso       1.00
      H177          H  0.1341970  0.6687210  0.8184510    0.00000       Uiso       1.00
      H178          H  0.6341970  0.1687210  0.8184510    0.00000       Uiso       1.00
      H179          H  0.8658030  0.3312790  0.8184510    0.00000       Uiso       1.00
      H180          H  0.3658030  0.8312790  0.8184510    0.00000       Uiso       1.00
      C181          C  0.1370520  0.3282230  0.4999980    0.00000       Uiso       1.00
      C182          C  0.6370520  0.8282230  0.4999980    0.00000       Uiso       1.00
      C183          C  0.8629490  0.6717770  0.4999980    0.00000       Uiso       1.00
      C184          C  0.3629490  0.1717770  0.4999980    0.00000       Uiso       1.00
      C185          C  0.8629490  0.3282230  0.4999980    0.00000       Uiso       1.00
      C186          C  0.3629490  0.8282230  0.4999980    0.00000       Uiso       1.00
      C187          C  0.1370520  0.6717770  0.4999980    0.00000       Uiso       1.00
      C188          C  0.6370520  0.1717770  0.4999980    0.00000       Uiso       1.00
      H189          H  0.2455260  0.8253900  0.4999980    0.00000       Uiso       1.00
      O190          O  0.3091650  0.7030320  0.4999980    0.00000       Uiso       1.00
      H191          H  0.2000430  0.6621520  0.4999980    0.00000       Uiso       1.00
      C192          C  0.6584730  0.7150690  0.4999980    0.00000       Uiso       1.00
      C193          C  0.6292130  0.7225770  0.4999980    0.00000       Uiso       1.00
      H194          H  0.6036720  0.7294970  0.4999980    0.00000       Uiso       1.00
      H195          H  0.7455260  0.3253900  0.4999980    0.00000       Uiso       1.00
      O196          O  0.8091650  0.2030330  0.4999980    0.00000       Uiso       1.00
      H197          H  0.7000430  0.1621530  0.4999980    0.00000       Uiso       1.00
      C198          C  0.1584720  0.2150690  0.4999980    0.00000       Uiso       1.00
      C199          C  0.1292120  0.2225770  0.4999980    0.00000       Uiso       1.00
      H200          H  0.1036720  0.2294970  0.4999980    0.00000       Uiso       1.00
      H201          H  0.7544750  0.1746100  0.4999980    0.00000       Uiso       1.00
      O202          O  0.6908360  0.2969670  0.4999980    0.00000       Uiso       1.00
      H203          H  0.7999580  0.3378470  0.4999980    0.00000       Uiso       1.00
      C204          C  0.3415280  0.2849310  0.4999980    0.00000       Uiso       1.00
      C205          C  0.3707880  0.2774230  0.4999980    0.00000       Uiso       1.00
      H206          H  0.3963280  0.2705030  0.4999980    0.00000       Uiso       1.00
      H207          H  0.2544750  0.6746100  0.4999980    0.00000       Uiso       1.00
      O208          O  0.1908350  0.7969670  0.4999980    0.00000       Uiso       1.00
      H209          H  0.2999570  0.8378470  0.4999980    0.00000       Uiso       1.00
      C210          C  0.8415281  0.7849310  0.4999980    0.00000       Uiso       1.00
      C211          C  0.8707879  0.7774220  0.4999980    0.00000       Uiso       1.00
      H212          H  0.8963290  0.7705030  0.4999980    0.00000       Uiso       1.00
      H213          H  0.7544750  0.8253900  0.4999980    0.00000       Uiso       1.00
      O214          O  0.6908360  0.7030320  0.4999980    0.00000       Uiso       1.00
      H215          H  0.7999580  0.6621520  0.4999980    0.00000       Uiso       1.00
      C216          C  0.3415280  0.7150690  0.4999980    0.00000       Uiso       1.00
      C217          C  0.3707880  0.7225770  0.4999980    0.00000       Uiso       1.00
      H218          H  0.3963280  0.7294970  0.4999980    0.00000       Uiso       1.00
      H219          H  0.2544750  0.3253900  0.4999980    0.00000       Uiso       1.00
      O220          O  0.1908350  0.2030330  0.4999980    0.00000       Uiso       1.00
      H221          H  0.2999570  0.1621530  0.4999980    0.00000       Uiso       1.00
      C222          C  0.8415281  0.2150690  0.4999980    0.00000       Uiso       1.00
      C223          C  0.8707879  0.2225770  0.4999980    0.00000       Uiso       1.00
      H224          H  0.8963290  0.2294970  0.4999980    0.00000       Uiso       1.00
      H225          H  0.2455260  0.1746100  0.4999980    0.00000       Uiso       1.00
      O226          O  0.3091650  0.2969670  0.4999980    0.00000       Uiso       1.00
      H227          H  0.2000430  0.3378470  0.4999980    0.00000       Uiso       1.00
      C228          C  0.6584730  0.2849310  0.4999980    0.00000       Uiso       1.00
      C229          C  0.6292130  0.2774230  0.4999980    0.00000       Uiso       1.00
      H230          H  0.6036720  0.2705030  0.4999980    0.00000       Uiso       1.00
      H231          H  0.7455260  0.6746100  0.4999980    0.00000       Uiso       1.00
      O232          O  0.8091650  0.7969670  0.4999980    0.00000       Uiso       1.00
      H233          H  0.7000430  0.8378470  0.4999980    0.00000       Uiso       1.00
      C234          C  0.1584720  0.7849310  0.4999980    0.00000       Uiso       1.00
      C235          C  0.1292120  0.7774220  0.4999980    0.00000       Uiso       1.00
      H236          H  0.1036720  0.7705030  0.4999980    0.00000       Uiso       1.00
      H237          H  0.5000000  0.9610640  0.4999980    0.00000       Uiso       1.00
      H238          H  0.0000000  0.4610640  0.4999980    0.00000       Uiso       1.00
      H239          H  0.5000000  0.0389360  0.4999980    0.00000       Uiso       1.00
      H240          H  0.0000000  0.5389360  0.4999980    0.00000       Uiso       1.00
