data_ICOF-1
_audit_creation_date              0000-00-00
_audit_creation_method            'LanYouShi'
_symmetry_space_group_name_H-M    'P1'
_cell_length_a                    5.0000000
_cell_length_b                    25.0000000
_cell_length_c                    25.0000000
_cell_angle_alpha                 90.0000000
_cell_angle_beta                  90.0000000
_cell_angle_gamma                 90.0000000
loop_
_atom_site_label
_atom_site_type_symbol
_atom_site_fract_x
_atom_site_fract_y
_atom_site_fract_z
_atom_site_U_iso_or_equiv
_atom_site_adp_type
_atom_site_occupancy
        C1          C  0.5000000  0.7808320  0.3624890    0.00000       Uiso       1.00
        C2          C  0.5000000  0.7808320  0.6375110    0.00000       Uiso       1.00
        C3          C  0.5000000  0.2191580  0.6375110    0.00000       Uiso       1.00
        C4          C  0.5000000  0.2191580  0.3624890    0.00000       Uiso       1.00
        C5          C  0.5000000  0.6375070  0.7808370    0.00000       Uiso       1.00
        C6          C  0.5000000  0.6375070  0.2191630    0.00000       Uiso       1.00
        C7          C  0.5000000  0.3624840  0.2191630    0.00000       Uiso       1.00
        C8          C  0.5000000  0.3624840  0.7808370    0.00000       Uiso       1.00
        C9          C  0.5000000  0.7269480  0.3800550    0.00000       Uiso       1.00
       C10          C  0.5000000  0.7269480  0.6199450    0.00000       Uiso       1.00
       C11          C  0.5000000  0.2730430  0.6199450    0.00000       Uiso       1.00
       C12          C  0.5000000  0.2730430  0.3800550    0.00000       Uiso       1.00
       C13          C  0.5000000  0.6199400  0.7269520    0.00000       Uiso       1.00
       C14          C  0.5000000  0.6199400  0.2730480    0.00000       Uiso       1.00
       C15          C  0.5000000  0.3800510  0.2730480    0.00000       Uiso       1.00
       C16          C  0.5000000  0.3800510  0.7269520    0.00000       Uiso       1.00
       C17          C  0.5000000  0.7147539  0.4353150    0.00000       Uiso       1.00
       C18          C  0.5000000  0.7147539  0.5646850    0.00000       Uiso       1.00
       C19          C  0.5000000  0.2852370  0.5646850    0.00000       Uiso       1.00
       C20          C  0.5000000  0.2852370  0.4353150    0.00000       Uiso       1.00
       C21          C  0.5000000  0.5646800  0.7147590    0.00000       Uiso       1.00
       C22          C  0.5000000  0.5646800  0.2852410    0.00000       Uiso       1.00
       C23          C  0.5000000  0.4353100  0.2852410    0.00000       Uiso       1.00
       C24          C  0.5000000  0.4353100  0.7147590    0.00000       Uiso       1.00
       C25          C  0.5000000  0.7572991  0.4721550    0.00000       Uiso       1.00
       C26          C  0.5000000  0.7572991  0.5278450    0.00000       Uiso       1.00
       C27          C  0.5000000  0.2426910  0.5278450    0.00000       Uiso       1.00
       C28          C  0.5000000  0.2426910  0.4721550    0.00000       Uiso       1.00
       C29          C  0.5000000  0.5278400  0.7573040    0.00000       Uiso       1.00
       C30          C  0.5000000  0.5278400  0.2426960    0.00000       Uiso       1.00
       C31          C  0.5000000  0.4721510  0.2426960    0.00000       Uiso       1.00
       C32          C  0.5000000  0.4721510  0.7573040    0.00000       Uiso       1.00
       C33          C  0.5000000  0.8104970  0.4547290    0.00000       Uiso       1.00
       C34          C  0.5000000  0.8104970  0.5452710    0.00000       Uiso       1.00
       C35          C  0.5000000  0.1894940  0.5452710    0.00000       Uiso       1.00
       C36          C  0.5000000  0.1894940  0.4547290    0.00000       Uiso       1.00
       C37          C  0.5000000  0.5452660  0.8105009    0.00000       Uiso       1.00
       C38          C  0.5000000  0.5452660  0.1894990    0.00000       Uiso       1.00
       C39          C  0.5000000  0.4547240  0.1894990    0.00000       Uiso       1.00
       C40          C  0.5000000  0.4547240  0.8105009    0.00000       Uiso       1.00
       C41          C  0.5000000  0.8229150  0.3999240    0.00000       Uiso       1.00
       C42          C  0.5000000  0.8229150  0.6000760    0.00000       Uiso       1.00
       C43          C  0.5000000  0.1770750  0.6000760    0.00000       Uiso       1.00
       C44          C  0.5000000  0.1770750  0.3999240    0.00000       Uiso       1.00
       C45          C  0.5000000  0.6000710  0.8229200    0.00000       Uiso       1.00
       C46          C  0.5000000  0.6000710  0.1770800    0.00000       Uiso       1.00
       C47          C  0.5000000  0.3999190  0.1770800    0.00000       Uiso       1.00
       C48          C  0.5000000  0.3999190  0.8229200    0.00000       Uiso       1.00
       C49          C  0.5000000  0.6889210  0.3448100    0.00000       Uiso       1.00
       C50          C  0.5000000  0.6889210  0.6551900    0.00000       Uiso       1.00
       C51          C  0.5000000  0.3110700  0.6551900    0.00000       Uiso       1.00
       C52          C  0.5000000  0.3110700  0.3448100    0.00000       Uiso       1.00
       C53          C  0.5000000  0.6551850  0.6889250    0.00000       Uiso       1.00
       C54          C  0.5000000  0.6551850  0.3110750    0.00000       Uiso       1.00
       C55          C  0.5000000  0.3448050  0.3110750    0.00000       Uiso       1.00
       C56          C  0.5000000  0.3448050  0.6889250    0.00000       Uiso       1.00
       H57          H  0.5000000  0.7900440  0.3178290    0.00000       Uiso       1.00
       H58          H  0.5000000  0.7900440  0.6821710    0.00000       Uiso       1.00
       H59          H  0.5000000  0.2099460  0.6821710    0.00000       Uiso       1.00
       H60          H  0.5000000  0.2099460  0.3178290    0.00000       Uiso       1.00
       H61          H  0.5000000  0.6821660  0.7900490    0.00000       Uiso       1.00
       H62          H  0.5000000  0.6821660  0.2099510    0.00000       Uiso       1.00
       H63          H  0.5000000  0.3178240  0.2099510    0.00000       Uiso       1.00
       H64          H  0.5000000  0.3178240  0.7900490    0.00000       Uiso       1.00
       H65          H  0.5000000  0.6712780  0.4490700    0.00000       Uiso       1.00
       H66          H  0.5000000  0.6712780  0.5509300    0.00000       Uiso       1.00
       H67          H  0.5000000  0.3287130  0.5509300    0.00000       Uiso       1.00
       H68          H  0.5000000  0.3287130  0.4490700    0.00000       Uiso       1.00
       H69          H  0.5000000  0.5509260  0.6712830    0.00000       Uiso       1.00
       H70          H  0.5000000  0.5509260  0.3287170    0.00000       Uiso       1.00
       H71          H  0.5000000  0.4490650  0.3287170    0.00000       Uiso       1.00
       H72          H  0.5000000  0.4490650  0.6712830    0.00000       Uiso       1.00
       H73          H  0.5000000  0.8661979  0.3855720    0.00000       Uiso       1.00
       H74          H  0.5000000  0.8661979  0.6144280    0.00000       Uiso       1.00
       H75          H  0.5021770  0.1384070  0.6134080    0.00000       Uiso       1.00
       H76          H  0.4978230  0.1384070  0.3865920    0.00000       Uiso       1.00
       H77          H  0.5020710  0.6133830  0.8616101    0.00000       Uiso       1.00
       H78          H  0.4979290  0.6133830  0.1383900    0.00000       Uiso       1.00
       H79          H  0.5020710  0.3866080  0.1383900    0.00000       Uiso       1.00
       H80          H  0.4979290  0.3866080  0.8616101    0.00000       Uiso       1.00
       C81          C  0.5000000  0.4999950  0.8477119    0.00000       Uiso       1.00
       C82          C  0.5000000  0.4999950  0.1522880    0.00000       Uiso       1.00
       C83          C  0.5000000  0.1447910  0.5000000    0.00000       Uiso       1.00
       C84          C  0.5000000  0.8551810  0.5000000    0.00000       Uiso       1.00
       C85          C  0.2959100  0.4879030  0.1014860    0.00000       Uiso       1.00
       C86          C  0.7040900  0.4879030  0.8985140    0.00000       Uiso       1.00
       O87          O  0.3441210  0.4716550  0.0452070    0.00000       Uiso       1.00
       O88          O  0.6558790  0.4716550  0.9547929    0.00000       Uiso       1.00
       C89          C  0.2959100  0.5120870  0.8985140    0.00000       Uiso       1.00
       C90          C  0.7040900  0.5120870  0.1014860    0.00000       Uiso       1.00
       O91          O  0.3441210  0.5283350  0.9547929    0.00000       Uiso       1.00
       O92          O  0.6558790  0.5283350  0.0452070    0.00000       Uiso       1.00
       C93          C  0.2914360  0.0973760  0.5133960    0.00000       Uiso       1.00
       C94          C  0.7085640  0.0973760  0.4866040    0.00000       Uiso       1.00
       O95          O  0.3433390  0.0427530  0.5297900    0.00000       Uiso       1.00
       O96          O  0.6566610  0.0427530  0.4702100    0.00000       Uiso       1.00
       C97          C  0.2912740  0.9025900  0.4867740    0.00000       Uiso       1.00
       C98          C  0.7087260  0.9025900  0.5132260    0.00000       Uiso       1.00
       O99          O  0.3427580  0.9572170  0.4703300    0.00000       Uiso       1.00
      O100          O  0.6572420  0.9572170  0.5296700    0.00000       Uiso       1.00
      B101          B  0.5000000  0.4999950  0.0000000    0.00000       Uiso       1.00
      B102          B  0.5000000  0.9999850  0.5000000    0.00000       Uiso       1.00
      H103          H  0.1627220  0.4576940  0.1168430    0.00000       Uiso       1.00
      H104          H  0.8372780  0.4576940  0.8831570    0.00000       Uiso       1.00
      H105          H  0.2082970  0.5266620  0.0948200    0.00000       Uiso       1.00
      H106          H  0.7917030  0.5266620  0.9051800    0.00000       Uiso       1.00
      H107          H  0.2082970  0.4733290  0.9051800    0.00000       Uiso       1.00
      H108          H  0.7917030  0.4733290  0.0948200    0.00000       Uiso       1.00
      H109          H  0.1627220  0.5422960  0.8831570    0.00000       Uiso       1.00
      H110          H  0.8372780  0.5422960  0.1168420    0.00000       Uiso       1.00
      H111          H  0.2039400  0.0907050  0.4747460    0.00000       Uiso       1.00
      H112          H  0.7960600  0.0907050  0.5252540    0.00000       Uiso       1.00
      H113          H  0.1629520  0.1142990  0.5437120    0.00000       Uiso       1.00
      H114          H  0.8370479  0.1142990  0.4562880    0.00000       Uiso       1.00
      H115          H  0.2044240  0.9092660  0.5254940    0.00000       Uiso       1.00
      H116          H  0.7955760  0.9092660  0.4745060    0.00000       Uiso       1.00
      H117          H  0.1626410  0.8855870  0.4565470    0.00000       Uiso       1.00
      H118          H  0.8373591  0.8855870  0.5434530    0.00000       Uiso       1.00
      N119          N  1.1809050 -0.3557070  0.9739969    0.00000       Uiso       1.00
      C120          C  1.1802560 -0.3475250  1.0323750    0.00000       Uiso       1.00
      H121          H  1.2493310 -0.3931820  0.9666130    0.00000       Uiso       1.00
      C122          C  0.9185830 -0.3500170  0.9477541    0.00000       Uiso       1.00
      H123          H  1.3105119 -0.3289230  0.9571670    0.00000       Uiso       1.00
      H124          H  1.1113130 -0.3073150  1.0423440    0.00000       Uiso       1.00
      H125          H  1.3840671 -0.3522990  1.0470459    0.00000       Uiso       1.00
      H126          H  1.0525939 -0.3769860  1.0520190    0.00000       Uiso       1.00
      H127          H  0.7789590 -0.3800410  0.9627220    0.00000       Uiso       1.00
      H128          H  0.9449250 -0.3559240  0.9048830    0.00000       Uiso       1.00
      H129          H  0.8362590 -0.3101300  0.9544140    0.00000       Uiso       1.00
      N130          N -0.0034380  0.0009560 -0.3781060    0.00000       Uiso       1.00
      C131          C  0.0606600 -0.0470800 -0.3463920    0.00000       Uiso       1.00
      H132          H -0.1610560 -0.0078220 -0.4022720    0.00000       Uiso       1.00
      C133          C -0.0671340  0.0489570 -0.3463080    0.00000       Uiso       1.00
      H134          H  0.1538350  0.0097420 -0.4023490    0.00000       Uiso       1.00
      H135          H  0.2433120 -0.0409170 -0.3232810    0.00000       Uiso       1.00
      H136          H  0.0911950 -0.0805430 -0.3735330    0.00000       Uiso       1.00
      H137          H -0.1036480 -0.0570850 -0.3194250    0.00000       Uiso       1.00
      H138          H -0.2493500  0.0427550 -0.3230700    0.00000       Uiso       1.00
      H139          H -0.0982890  0.0824330 -0.3733990    0.00000       Uiso       1.00
      H140          H  0.0976360  0.0589640 -0.3194540    0.00000       Uiso       1.00
