data_ICOF-2
_audit_creation_date              0000-00-00
_audit_creation_method            'LanYouShi'
_symmetry_space_group_name_H-M    'P1'
_cell_length_a                    25.0000000
_cell_length_b                    25.0000000
_cell_length_c                    5.0000000
_cell_angle_alpha                 90.0000000
_cell_angle_beta                  90.0000000
_cell_angle_gamma                 90.0000000
loop_
_atom_site_label
_atom_site_type_symbol
_atom_site_fract_x
_atom_site_fract_y
_atom_site_fract_z
_atom_site_U_iso_or_equiv
_atom_site_adp_type
_atom_site_occupancy
        C1          C  0.3624890  0.7808370  0.5000000    0.00000       Uiso       1.00
        C2          C  0.6375110  0.2191630  0.5000000    0.00000       Uiso       1.00
        C3          C  0.2191630  0.3624890  0.5000000    0.00000       Uiso       1.00
        C4          C  0.7808370  0.6375110  0.5000000    0.00000       Uiso       1.00
        C5          C  0.6375110  0.7808370  0.5000000    0.00000       Uiso       1.00
        C6          C  0.3624890  0.2191630  0.5000000    0.00000       Uiso       1.00
        C7          C  0.7808370  0.3624890  0.5000000    0.00000       Uiso       1.00
        C8          C  0.2191630  0.6375110  0.5000000    0.00000       Uiso       1.00
        C9          C  0.3800550  0.7269520  0.5000000    0.00000       Uiso       1.00
       C10          C  0.6199450  0.2730480  0.5000000    0.00000       Uiso       1.00
       C11          C  0.2730480  0.3800550  0.5000000    0.00000       Uiso       1.00
       C12          C  0.7269520  0.6199450  0.5000000    0.00000       Uiso       1.00
       C13          C  0.6199450  0.7269520  0.5000000    0.00000       Uiso       1.00
       C14          C  0.3800550  0.2730480  0.5000000    0.00000       Uiso       1.00
       C15          C  0.7269520  0.3800550  0.5000000    0.00000       Uiso       1.00
       C16          C  0.2730480  0.6199450  0.5000000    0.00000       Uiso       1.00
       C17          C  0.4353150  0.7147590  0.5000000    0.00000       Uiso       1.00
       C18          C  0.5646850  0.2852410  0.5000000    0.00000       Uiso       1.00
       C19          C  0.2852410  0.4353150  0.5000000    0.00000       Uiso       1.00
       C20          C  0.7147590  0.5646850  0.5000000    0.00000       Uiso       1.00
       C21          C  0.5646850  0.7147590  0.5000000    0.00000       Uiso       1.00
       C22          C  0.4353150  0.2852410  0.5000000    0.00000       Uiso       1.00
       C23          C  0.7147590  0.4353150  0.5000000    0.00000       Uiso       1.00
       C24          C  0.2852410  0.5646850  0.5000000    0.00000       Uiso       1.00
       C25          C  0.4721550  0.7573040  0.5000000    0.00000       Uiso       1.00
       C26          C  0.5278450  0.2426960  0.5000000    0.00000       Uiso       1.00
       C27          C  0.2426960  0.4721550  0.5000000    0.00000       Uiso       1.00
       C28          C  0.7573040  0.5278450  0.5000000    0.00000       Uiso       1.00
       C29          C  0.5278450  0.7573040  0.5000000    0.00000       Uiso       1.00
       C30          C  0.4721550  0.2426960  0.5000000    0.00000       Uiso       1.00
       C31          C  0.7573040  0.4721550  0.5000000    0.00000       Uiso       1.00
       C32          C  0.2426960  0.5278450  0.5000000    0.00000       Uiso       1.00
       C33          C  0.4547290  0.8105009  0.5000000    0.00000       Uiso       1.00
       C34          C  0.5452710  0.1894990  0.5000000    0.00000       Uiso       1.00
       C35          C  0.1894990  0.4547290  0.5000000    0.00000       Uiso       1.00
       C36          C  0.8105009  0.5452710  0.5000000    0.00000       Uiso       1.00
       C37          C  0.5452710  0.8105009  0.5000000    0.00000       Uiso       1.00
       C38          C  0.4547290  0.1894990  0.5000000    0.00000       Uiso       1.00
       C39          C  0.8105009  0.4547290  0.5000000    0.00000       Uiso       1.00
       C40          C  0.1894990  0.5452710  0.5000000    0.00000       Uiso       1.00
       C41          C  0.3999240  0.8229200  0.5000000    0.00000       Uiso       1.00
       C42          C  0.6000760  0.1770800  0.5000000    0.00000       Uiso       1.00
       C43          C  0.1770800  0.3999240  0.5000000    0.00000       Uiso       1.00
       C44          C  0.8229200  0.6000760  0.5000000    0.00000       Uiso       1.00
       C45          C  0.6000760  0.8229200  0.5000000    0.00000       Uiso       1.00
       C46          C  0.3999240  0.1770800  0.5000000    0.00000       Uiso       1.00
       C47          C  0.8229200  0.3999240  0.5000000    0.00000       Uiso       1.00
       C48          C  0.1770800  0.6000760  0.5000000    0.00000       Uiso       1.00
       C49          C  0.3448100  0.6889250  0.5000000    0.00000       Uiso       1.00
       C50          C  0.6551900  0.3110750  0.5000000    0.00000       Uiso       1.00
       C51          C  0.3110750  0.3448100  0.5000000    0.00000       Uiso       1.00
       C52          C  0.6889250  0.6551900  0.5000000    0.00000       Uiso       1.00
       C53          C  0.6551900  0.6889250  0.5000000    0.00000       Uiso       1.00
       C54          C  0.3448100  0.3110750  0.5000000    0.00000       Uiso       1.00
       C55          C  0.6889250  0.3448100  0.5000000    0.00000       Uiso       1.00
       C56          C  0.3110750  0.6551900  0.5000000    0.00000       Uiso       1.00
       H57          H  0.3178290  0.7900490  0.5000000    0.00000       Uiso       1.00
       H58          H  0.6821710  0.2099510  0.5000000    0.00000       Uiso       1.00
       H59          H  0.2099510  0.3178290  0.5000000    0.00000       Uiso       1.00
       H60          H  0.7900490  0.6821710  0.5000000    0.00000       Uiso       1.00
       H61          H  0.6821710  0.7900490  0.5000000    0.00000       Uiso       1.00
       H62          H  0.3178290  0.2099510  0.5000000    0.00000       Uiso       1.00
       H63          H  0.7900490  0.3178290  0.5000000    0.00000       Uiso       1.00
       H64          H  0.2099510  0.6821710  0.5000000    0.00000       Uiso       1.00
       H65          H  0.4490700  0.6712830  0.5000000    0.00000       Uiso       1.00
       H66          H  0.5509300  0.3287170  0.5000000    0.00000       Uiso       1.00
       H67          H  0.3287170  0.4490700  0.5000000    0.00000       Uiso       1.00
       H68          H  0.6712830  0.5509300  0.5000000    0.00000       Uiso       1.00
       H69          H  0.5509300  0.6712830  0.5000000    0.00000       Uiso       1.00
       H70          H  0.4490700  0.3287170  0.5000000    0.00000       Uiso       1.00
       H71          H  0.6712830  0.4490700  0.5000000    0.00000       Uiso       1.00
       H72          H  0.3287170  0.5509300  0.5000000    0.00000       Uiso       1.00
       H73          H  0.3863470  0.8627530  0.4984200    0.00000       Uiso       1.00
       H74          H  0.6136530  0.1372470  0.4984200    0.00000       Uiso       1.00
       H75          H  0.1372470  0.3863470  0.4984200    0.00000       Uiso       1.00
       H76          H  0.8627530  0.6136530  0.4984200    0.00000       Uiso       1.00
       H77          H  0.6136530  0.8627530  0.5015800    0.00000       Uiso       1.00
       H78          H  0.3863470  0.1372470  0.5015800    0.00000       Uiso       1.00
       H79          H  0.8627530  0.3863470  0.5015800    0.00000       Uiso       1.00
       H80          H  0.1372470  0.6136530  0.5015800    0.00000       Uiso       1.00
       C81          C  0.8514540  0.5000000  0.5000000    0.00000       Uiso       1.00
       C82          C  0.1485460  0.5000000  0.5000000    0.00000       Uiso       1.00
       C83          C  0.5000000  0.8514540  0.5000000    0.00000       Uiso       1.00
       C84          C  0.5000000  0.1485460  0.5000000    0.00000       Uiso       1.00
       C85          C  0.0994400  0.4872980  0.7063670    0.00000       Uiso       1.00
       C86          C  0.9005600  0.5127020  0.7063670    0.00000       Uiso       1.00
       C87          C  0.5127020  0.0994400  0.7063670    0.00000       Uiso       1.00
       C88          C  0.4872980  0.9005600  0.7063670    0.00000       Uiso       1.00
       C89          C  0.9005600  0.4872980  0.2936330    0.00000       Uiso       1.00
       C90          C  0.0994400  0.5127020  0.2936330    0.00000       Uiso       1.00
       C91          C  0.4872980  0.0994400  0.2936330    0.00000       Uiso       1.00
       C92          C  0.5127020  0.9005600  0.2936330    0.00000       Uiso       1.00
       O93          O  0.0439880  0.4709650  0.6564160    0.00000       Uiso       1.00
       O94          O  0.9560120  0.5290350  0.6564160    0.00000       Uiso       1.00
       O95          O  0.5290350  0.0439880  0.6564160    0.00000       Uiso       1.00
       O96          O  0.4709650  0.9560120  0.6564160    0.00000       Uiso       1.00
       O97          O  0.9560120  0.4709650  0.3435840    0.00000       Uiso       1.00
       O98          O  0.0439880  0.5290350  0.3435840    0.00000       Uiso       1.00
       O99          O  0.4709650  0.0439880  0.3435840    0.00000       Uiso       1.00
      O100          O  0.5290350  0.9560120  0.3435840    0.00000       Uiso       1.00
      B101          B  0.0000000  0.5000000  0.5000000    0.00000       Uiso       1.00
      B102          B  0.5000000  0.0000000  0.5000000    0.00000       Uiso       1.00
      H103          H  0.1155990  0.4570580  0.8372410    0.00000       Uiso       1.00
      H104          H  0.8844010  0.5429420  0.8372410    0.00000       Uiso       1.00
      H105          H  0.5429420  0.1155990  0.8372410    0.00000       Uiso       1.00
      H106          H  0.4570580  0.8844010  0.8372410    0.00000       Uiso       1.00
      H107          H  0.8844010  0.4570580  0.1627590    0.00000       Uiso       1.00
      H108          H  0.1155990  0.5429420  0.1627590    0.00000       Uiso       1.00
      H109          H  0.4570580  0.1155990  0.1627590    0.00000       Uiso       1.00
      H110          H  0.5429420  0.8844010  0.1627590    0.00000       Uiso       1.00
      H111          H  0.0927700  0.5260200  0.7937610    0.00000       Uiso       1.00
      H112          H  0.9072300  0.4739800  0.7937610    0.00000       Uiso       1.00
      H113          H  0.4739800  0.0927700  0.7937610    0.00000       Uiso       1.00
      H114          H  0.5260200  0.9072300  0.7937610    0.00000       Uiso       1.00
      H115          H  0.9072300  0.5260200  0.2062390    0.00000       Uiso       1.00
      H116          H  0.0927700  0.4739800  0.2062390    0.00000       Uiso       1.00
      H117          H  0.5260200  0.0927700  0.2062390    0.00000       Uiso       1.00
      H118          H  0.4739800  0.9072300  0.2062390    0.00000       Uiso       1.00
     Li119         Li  0.4000000  0.0000000  0.5000000    0.00000       Uiso       1.00
     Li120         Li  0.0000000  0.4000000  0.5000000    0.00000       Uiso       1.00
