data_ILCOF-1-AA
_audit_creation_date              0000-00-00
_audit_creation_method            'LanYouShi'
_symmetry_space_group_name_H-M    'P1'
_cell_length_a                    34.7756004
_cell_length_b                    34.1643982
_cell_length_c                    6.5787001
_cell_angle_alpha                 90.0000000
_cell_angle_beta                  90.0000000
_cell_angle_gamma                 90.0000000
loop_
_atom_site_label
_atom_site_type_symbol
_atom_site_fract_x
_atom_site_fract_y
_atom_site_fract_z
_atom_site_U_iso_or_equiv
_atom_site_adp_type
_atom_site_occupancy
        C1          C  0.4647000  0.9574000  0.9861999    0.00000       Uiso       1.00
        C2          C  0.4302000  0.0215000  0.9827000    0.00000       Uiso       1.00
        C3          C  0.4650000  0.0840000  0.9879000    0.00000       Uiso       1.00
        C4          C  0.4293000  0.1073000  1.0039999    0.00000       Uiso       1.00
        C5          C  0.4085000  0.1076000  1.1865000    0.00000       Uiso       1.00
        C6          C  0.3754000  0.1304000  1.2048000    0.00000       Uiso       1.00
        C7          C  0.3625000  0.1533000  1.0409000    0.00000       Uiso       1.00
        C8          C  0.3834000  0.1529000  0.8577000    0.00000       Uiso       1.00
        C9          C  0.4167000  0.1302000  0.8399000    0.00000       Uiso       1.00
       C10          C  0.3277000  0.1775000  1.0657001    0.00000       Uiso       1.00
       C11          C  0.7819000  0.2755000  0.9258001    0.00000       Uiso       1.00
       C12          C  0.7659000  0.2625000  0.7430000    0.00000       Uiso       1.00
       C13          C  0.7341000  0.2375000  1.1101000    0.00000       Uiso       1.00
       H14          H  0.4026000  0.0361000  0.9780000    0.00000       Uiso       1.00
       H15          H  0.4181000  0.0904000  1.3151000    0.00000       Uiso       1.00
       H16          H  0.3598000  0.1304000  1.3475001    0.00000       Uiso       1.00
       H17          H  0.3743000  0.1702000  0.7289000    0.00000       Uiso       1.00
       H18          H  0.4327000  0.1303000  0.6984000    0.00000       Uiso       1.00
       H19          H  0.3127000  0.1763000  1.2097000    0.00000       Uiso       1.00
       H20          H  0.7781000  0.2721000  0.6005000    0.00000       Uiso       1.00
       H21          H  0.7220000  0.2290000  1.2541000    0.00000       Uiso       1.00
       N22          N  0.3149000  0.1991000  0.9176000    0.00000       Uiso       1.00
       C23          C  0.9646999  0.4574000  0.9861999    0.00000       Uiso       1.00
       C24          C  0.9302000  0.5215000  0.9827000    0.00000       Uiso       1.00
       C25          C  0.9650000  0.5840000  0.9879000    0.00000       Uiso       1.00
       C26          C  0.9293001  0.6073000  1.0039999    0.00000       Uiso       1.00
       C27          C  0.9085000  0.6076000  1.1865000    0.00000       Uiso       1.00
       C28          C  0.8754000  0.6304000  1.2048000    0.00000       Uiso       1.00
       C29          C  0.8625000  0.6533000  1.0409000    0.00000       Uiso       1.00
       C30          C  0.8834000  0.6529000  0.8577000    0.00000       Uiso       1.00
       C31          C  0.9167000  0.6302000  0.8399000    0.00000       Uiso       1.00
       C32          C  0.8277000  0.6775000  1.0657001    0.00000       Uiso       1.00
       C33          C  0.2819000  0.7755000  0.9258001    0.00000       Uiso       1.00
       C34          C  0.2659000  0.7625000  0.7430000    0.00000       Uiso       1.00
       C35          C  0.2341000  0.7375000  1.1101000    0.00000       Uiso       1.00
       H36          H  0.9026000  0.5361000  0.9780000    0.00000       Uiso       1.00
       H37          H  0.9181000  0.5904000  1.3151000    0.00000       Uiso       1.00
       H38          H  0.8598000  0.6304000  1.3475001    0.00000       Uiso       1.00
       H39          H  0.8743000  0.6702000  0.7289000    0.00000       Uiso       1.00
       H40          H  0.9327000  0.6303000  0.6984000    0.00000       Uiso       1.00
       H41          H  0.8127000  0.6763000  1.2097000    0.00000       Uiso       1.00
       H42          H  0.2781000  0.7721000  0.6005000    0.00000       Uiso       1.00
       H43          H  0.2220000  0.7290000  1.2541000    0.00000       Uiso       1.00
       N44          N  0.8149000  0.6991000  0.9176000    0.00000       Uiso       1.00
       C45          C  0.5353000  0.0426000  0.9861999    0.00000       Uiso       1.00
       C46          C  0.5698000  0.9785000  0.9827000    0.00000       Uiso       1.00
       C47          C  0.5350000  0.9160000  0.9879000    0.00000       Uiso       1.00
       C48          C  0.5707000  0.8927000  1.0039999    0.00000       Uiso       1.00
       C49          C  0.5915000  0.8924000  1.1865000    0.00000       Uiso       1.00
       C50          C  0.6246000  0.8696000  1.2048000    0.00000       Uiso       1.00
       C51          C  0.6375000  0.8467000  1.0409000    0.00000       Uiso       1.00
       C52          C  0.6166000  0.8471000  0.8577000    0.00000       Uiso       1.00
       C53          C  0.5833000  0.8698000  0.8399000    0.00000       Uiso       1.00
       C54          C  0.6723000  0.8225000  1.0657001    0.00000       Uiso       1.00
       C55          C  0.2181000  0.7245000  0.9258001    0.00000       Uiso       1.00
       C56          C  0.2341000  0.7375000  0.7430000    0.00000       Uiso       1.00
       C57          C  0.2659000  0.7625000  1.1101000    0.00000       Uiso       1.00
       H58          H  0.5974000  0.9639000  0.9780000    0.00000       Uiso       1.00
       H59          H  0.5819000  0.9096000  1.3151000    0.00000       Uiso       1.00
       H60          H  0.6402000  0.8696000  1.3475001    0.00000       Uiso       1.00
       H61          H  0.6257000  0.8298000  0.7289000    0.00000       Uiso       1.00
       H62          H  0.5673000  0.8697000  0.6984000    0.00000       Uiso       1.00
       H63          H  0.6873000  0.8237000  1.2097000    0.00000       Uiso       1.00
       H64          H  0.2219000  0.7279000  0.6005000    0.00000       Uiso       1.00
       H65          H  0.2780000  0.7710000  1.2541000    0.00000       Uiso       1.00
       N66          N  0.6851000  0.8009000  0.9176000    0.00000       Uiso       1.00
       C67          C  0.0353000  0.5426000  0.9861999    0.00000       Uiso       1.00
       C68          C  0.0698000  0.4785000  0.9827000    0.00000       Uiso       1.00
       C69          C  0.0350000  0.4160000  0.9879000    0.00000       Uiso       1.00
       C70          C  0.0707000  0.3927000  1.0039999    0.00000       Uiso       1.00
       C71          C  0.0915000  0.3924000  1.1865000    0.00000       Uiso       1.00
       C72          C  0.1246000  0.3696000  1.2048000    0.00000       Uiso       1.00
       C73          C  0.1375000  0.3467000  1.0409000    0.00000       Uiso       1.00
       C74          C  0.1166000  0.3471000  0.8577000    0.00000       Uiso       1.00
       C75          C  0.0833000  0.3698000  0.8399000    0.00000       Uiso       1.00
       C76          C  0.1723000  0.3225000  1.0657001    0.00000       Uiso       1.00
       C77          C  0.7181000  0.2245000  0.9258001    0.00000       Uiso       1.00
       C78          C  0.7341000  0.2375000  0.7430000    0.00000       Uiso       1.00
       C79          C  0.7659000  0.2625000  1.1101000    0.00000       Uiso       1.00
       H80          H  0.0974000  0.4639000  0.9780000    0.00000       Uiso       1.00
       H81          H  0.0819000  0.4096000  1.3151000    0.00000       Uiso       1.00
       H82          H  0.1402000  0.3696000  1.3475001    0.00000       Uiso       1.00
       H83          H  0.1257000  0.3298000  0.7289000    0.00000       Uiso       1.00
       H84          H  0.0673000  0.3697000  0.6984000    0.00000       Uiso       1.00
       H85          H  0.1873000  0.3237000  1.2097000    0.00000       Uiso       1.00
       H86          H  0.7219000  0.2279000  0.6005000    0.00000       Uiso       1.00
       H87          H  0.7780000  0.2710000  1.2541000    0.00000       Uiso       1.00
       N88          N  0.1851000  0.3009000  0.9176000    0.00000       Uiso       1.00
       C89          C  0.4647000  0.0426000  0.9861999    0.00000       Uiso       1.00
       C90          C  0.4302000  0.9785000  0.9827000    0.00000       Uiso       1.00
       C91          C  0.4650000  0.9160000  0.9879000    0.00000       Uiso       1.00
       C92          C  0.4293000  0.8927000  1.0039999    0.00000       Uiso       1.00
       C93          C  0.4085000  0.8924000  1.1865000    0.00000       Uiso       1.00
       C94          C  0.3754000  0.8696000  1.2048000    0.00000       Uiso       1.00
       C95          C  0.3625000  0.8467000  1.0409000    0.00000       Uiso       1.00
       C96          C  0.3834000  0.8471000  0.8577000    0.00000       Uiso       1.00
       C97          C  0.4167000  0.8698000  0.8399000    0.00000       Uiso       1.00
       C98          C  0.3277000  0.8225000  1.0657001    0.00000       Uiso       1.00
       C99          C  0.7819000  0.7245000  0.9258001    0.00000       Uiso       1.00
      C100          C  0.7659000  0.7375000  0.7430000    0.00000       Uiso       1.00
      C101          C  0.7341000  0.7625000  1.1101000    0.00000       Uiso       1.00
      H102          H  0.4026000  0.9639000  0.9780000    0.00000       Uiso       1.00
      H103          H  0.4181000  0.9096000  1.3151000    0.00000       Uiso       1.00
      H104          H  0.3598000  0.8696000  1.3475001    0.00000       Uiso       1.00
      H105          H  0.3743000  0.8298000  0.7289000    0.00000       Uiso       1.00
      H106          H  0.4327000  0.8697000  0.6984000    0.00000       Uiso       1.00
      H107          H  0.3127000  0.8237000  1.2097000    0.00000       Uiso       1.00
      H108          H  0.7781000  0.7279000  0.6005000    0.00000       Uiso       1.00
      H109          H  0.7220000  0.7710000  1.2541000    0.00000       Uiso       1.00
      N110          N  0.3149000  0.8009000  0.9176000    0.00000       Uiso       1.00
      C111          C  0.9646999  0.5426000  0.9861999    0.00000       Uiso       1.00
      C112          C  0.9302000  0.4785000  0.9827000    0.00000       Uiso       1.00
      C113          C  0.9650000  0.4160000  0.9879000    0.00000       Uiso       1.00
      C114          C  0.9293001  0.3927000  1.0039999    0.00000       Uiso       1.00
      C115          C  0.9085000  0.3924000  1.1865000    0.00000       Uiso       1.00
      C116          C  0.8754000  0.3696000  1.2048000    0.00000       Uiso       1.00
      C117          C  0.8625000  0.3467000  1.0409000    0.00000       Uiso       1.00
      C118          C  0.8834000  0.3471000  0.8577000    0.00000       Uiso       1.00
      C119          C  0.9167000  0.3698000  0.8399000    0.00000       Uiso       1.00
      C120          C  0.8277000  0.3225000  1.0657001    0.00000       Uiso       1.00
      C121          C  0.2819000  0.2245000  0.9258001    0.00000       Uiso       1.00
      C122          C  0.2659000  0.2375000  0.7430000    0.00000       Uiso       1.00
      C123          C  0.2341000  0.2625000  1.1101000    0.00000       Uiso       1.00
      H124          H  0.9026000  0.4639000  0.9780000    0.00000       Uiso       1.00
      H125          H  0.9181000  0.4096000  1.3151000    0.00000       Uiso       1.00
      H126          H  0.8598000  0.3696000  1.3475001    0.00000       Uiso       1.00
      H127          H  0.8743000  0.3298000  0.7289000    0.00000       Uiso       1.00
      H128          H  0.9327000  0.3697000  0.6984000    0.00000       Uiso       1.00
      H129          H  0.8127000  0.3237000  1.2097000    0.00000       Uiso       1.00
      H130          H  0.2781000  0.2279000  0.6005000    0.00000       Uiso       1.00
      H131          H  0.2220000  0.2710000  1.2541000    0.00000       Uiso       1.00
      N132          N  0.8149000  0.3009000  0.9176000    0.00000       Uiso       1.00
      C133          C  0.5353000  0.9574000  0.9861999    0.00000       Uiso       1.00
      C134          C  0.5698000  0.0215000  0.9827000    0.00000       Uiso       1.00
      C135          C  0.5350000  0.0840000  0.9879000    0.00000       Uiso       1.00
      C136          C  0.5707000  0.1073000  1.0039999    0.00000       Uiso       1.00
      C137          C  0.5915000  0.1076000  1.1865000    0.00000       Uiso       1.00
      C138          C  0.6246000  0.1304000  1.2048000    0.00000       Uiso       1.00
      C139          C  0.6375000  0.1533000  1.0409000    0.00000       Uiso       1.00
      C140          C  0.6166000  0.1529000  0.8577000    0.00000       Uiso       1.00
      C141          C  0.5833000  0.1302000  0.8399000    0.00000       Uiso       1.00
      C142          C  0.6723000  0.1775000  1.0657001    0.00000       Uiso       1.00
      C143          C  0.2181000  0.2755000  0.9258001    0.00000       Uiso       1.00
      C144          C  0.2341000  0.2625000  0.7430000    0.00000       Uiso       1.00
      C145          C  0.2659000  0.2375000  1.1101000    0.00000       Uiso       1.00
      H146          H  0.5974000  0.0361000  0.9780000    0.00000       Uiso       1.00
      H147          H  0.5819000  0.0904000  1.3151000    0.00000       Uiso       1.00
      H148          H  0.6402000  0.1304000  1.3475001    0.00000       Uiso       1.00
      H149          H  0.6257000  0.1702000  0.7289000    0.00000       Uiso       1.00
      H150          H  0.5673000  0.1303000  0.6984000    0.00000       Uiso       1.00
      H151          H  0.6873000  0.1763000  1.2097000    0.00000       Uiso       1.00
      H152          H  0.2219000  0.2721000  0.6005000    0.00000       Uiso       1.00
      H153          H  0.2780000  0.2290000  1.2541000    0.00000       Uiso       1.00
      N154          N  0.6851000  0.1991000  0.9176000    0.00000       Uiso       1.00
      C155          C  0.0353000  0.4574000  0.9861999    0.00000       Uiso       1.00
      C156          C  0.0698000  0.5215000  0.9827000    0.00000       Uiso       1.00
      C157          C  0.0350000  0.5840000  0.9879000    0.00000       Uiso       1.00
      C158          C  0.0707000  0.6073000  1.0039999    0.00000       Uiso       1.00
      C159          C  0.0915000  0.6076000  1.1865000    0.00000       Uiso       1.00
      C160          C  0.1246000  0.6304000  1.2048000    0.00000       Uiso       1.00
      C161          C  0.1375000  0.6533000  1.0409000    0.00000       Uiso       1.00
      C162          C  0.1166000  0.6529000  0.8577000    0.00000       Uiso       1.00
      C163          C  0.0833000  0.6302000  0.8399000    0.00000       Uiso       1.00
      C164          C  0.1723000  0.6775000  1.0657001    0.00000       Uiso       1.00
      C165          C  0.7181000  0.7755000  0.9258001    0.00000       Uiso       1.00
      C166          C  0.7341000  0.7625000  0.7430000    0.00000       Uiso       1.00
      C167          C  0.7659000  0.7375000  1.1101000    0.00000       Uiso       1.00
      H168          H  0.0974000  0.5361000  0.9780000    0.00000       Uiso       1.00
      H169          H  0.0819000  0.5904000  1.3151000    0.00000       Uiso       1.00
      H170          H  0.1402000  0.6304000  1.3475001    0.00000       Uiso       1.00
      H171          H  0.1257000  0.6702000  0.7289000    0.00000       Uiso       1.00
      H172          H  0.0673000  0.6303000  0.6984000    0.00000       Uiso       1.00
      H173          H  0.1873000  0.6763000  1.2097000    0.00000       Uiso       1.00
      H174          H  0.7219000  0.7721000  0.6005000    0.00000       Uiso       1.00
      H175          H  0.7780000  0.7290000  1.2541000    0.00000       Uiso       1.00
      N176          N  0.1851000  0.6991000  0.9176000    0.00000       Uiso       1.00
      C177          C  0.5000000  0.1041000  0.9858000    0.00000       Uiso       1.00
      C178          C  0.5000000  0.9781000  0.9854000    0.00000       Uiso       1.00
      H179          H  0.5000000  0.1359000  0.9903000    0.00000       Uiso       1.00
      C180          C  0.0000000  0.6041000  0.9858000    0.00000       Uiso       1.00
      C181          C  0.0000000  0.4781000  0.9854000    0.00000       Uiso       1.00
      H182          H  0.0000000  0.6359000  0.9903000    0.00000       Uiso       1.00
      C183          C  0.5000000  0.8959000  0.9858000    0.00000       Uiso       1.00
      C184          C  0.5000000  0.0219000  0.9854000    0.00000       Uiso       1.00
      H185          H  0.5000000  0.8641000  0.9903000    0.00000       Uiso       1.00
      C186          C  0.0000000  0.3959000  0.9858000    0.00000       Uiso       1.00
      C187          C  0.0000000  0.5219000  0.9854000    0.00000       Uiso       1.00
      H188          H  0.0000000  0.3641000  0.9903000    0.00000       Uiso       1.00
