data_AEM-COF-1
_audit_creation_date              0000-00-00
_audit_creation_method            'LanYouShi'
_symmetry_space_group_name_H-M    'P1'
_cell_length_a                    35.5279999
_cell_length_b                    35.5279999
_cell_length_c                    3.3980000
_cell_angle_alpha                 90.0000000
_cell_angle_beta                  90.0000000
_cell_angle_gamma                 120.0000000
loop_
_atom_site_label
_atom_site_type_symbol
_atom_site_fract_x
_atom_site_fract_y
_atom_site_fract_z
_atom_site_U_iso_or_equiv
_atom_site_adp_type
_atom_site_occupancy
        H1          H  0.0399300  0.5809600  0.0000000    0.00000       Uiso       1.00
        C2          C  0.0228000  0.5456300  0.0000000    0.00000       Uiso       1.00
        O3          O  0.1228500  0.5961100  0.0000000    0.00000       Uiso       1.00
        C4          C  0.1644300  0.6016400  0.0000000    0.00000       Uiso       1.00
        C5          C  0.2032300  0.6415200  0.0000000    0.00000       Uiso       1.00
        H6          H  0.2024900  0.6717300  0.0000000    0.00000       Uiso       1.00
        C7          C  0.2429800  0.6415400  0.0000000    0.00000       Uiso       1.00
        C8          C  0.2833000  0.6826700  0.0000000    0.00000       Uiso       1.00
        H9          H  0.4190400  0.4589700  0.0000000    0.00000       Uiso       1.00
       C10          C  0.4543700  0.4771700  0.0000000    0.00000       Uiso       1.00
       O11          O  0.4038900  0.5267400  0.0000000    0.00000       Uiso       1.00
       C12          C  0.3983600  0.5627900  0.0000000    0.00000       Uiso       1.00
       C13          C  0.3584800  0.5617100  0.0000000    0.00000       Uiso       1.00
       H14          H  0.3282700  0.5307600  0.0000000    0.00000       Uiso       1.00
       C15          C  0.3584600  0.6014400  0.0000000    0.00000       Uiso       1.00
       C16          C  0.3173300  0.6006300  0.0000000    0.00000       Uiso       1.00
       H17          H  0.5410300  0.9600700  0.0000000    0.00000       Uiso       1.00
       C18          C  0.5228300  0.9772000  0.0000000    0.00000       Uiso       1.00
       O19          O  0.4732600  0.8771500  0.0000000    0.00000       Uiso       1.00
       C20          C  0.4372100  0.8355700  0.0000000    0.00000       Uiso       1.00
       C21          C  0.4382900  0.7967700  0.0000000    0.00000       Uiso       1.00
       H22          H  0.4692400  0.7975100  0.0000000    0.00000       Uiso       1.00
       C23          C  0.3985600  0.7570200  0.0000000    0.00000       Uiso       1.00
       C24          C  0.3993700  0.7167000  0.0000000    0.00000       Uiso       1.00
       H25          H  0.9600700  0.4190400  0.0000000    0.00000       Uiso       1.00
       C26          C  0.9772000  0.4543700  0.0000000    0.00000       Uiso       1.00
       O27          O  0.8771500  0.4038900  0.0000000    0.00000       Uiso       1.00
       C28          C  0.8355700  0.3983600  0.0000000    0.00000       Uiso       1.00
       C29          C  0.7967700  0.3584800  0.0000000    0.00000       Uiso       1.00
       H30          H  0.7975100  0.3282700  0.0000000    0.00000       Uiso       1.00
       C31          C  0.7570200  0.3584600  0.0000000    0.00000       Uiso       1.00
       C32          C  0.7167000  0.3173300  0.0000000    0.00000       Uiso       1.00
       H33          H  0.5809600  0.5410300  0.0000000    0.00000       Uiso       1.00
       C34          C  0.5456300  0.5228300  0.0000000    0.00000       Uiso       1.00
       O35          O  0.5961100  0.4732600  0.0000000    0.00000       Uiso       1.00
       C36          C  0.6016400  0.4372100  0.0000000    0.00000       Uiso       1.00
       C37          C  0.6415200  0.4382900  0.0000000    0.00000       Uiso       1.00
       H38          H  0.6717300  0.4692400  0.0000000    0.00000       Uiso       1.00
       C39          C  0.6415400  0.3985600  0.0000000    0.00000       Uiso       1.00
       C40          C  0.6826700  0.3993700  0.0000000    0.00000       Uiso       1.00
       H41          H  0.4589700  0.0399300  0.0000000    0.00000       Uiso       1.00
       C42          C  0.4771700  0.0228000  0.0000000    0.00000       Uiso       1.00
       O43          O  0.5267400  0.1228500  0.0000000    0.00000       Uiso       1.00
       C44          C  0.5627900  0.1644300  0.0000000    0.00000       Uiso       1.00
       C45          C  0.5617100  0.2032300  0.0000000    0.00000       Uiso       1.00
       H46          H  0.5307600  0.2024900  0.0000000    0.00000       Uiso       1.00
       C47          C  0.6014400  0.2429800  0.0000000    0.00000       Uiso       1.00
       C48          C  0.6006300  0.2833000  0.0000000    0.00000       Uiso       1.00
       H49          H  0.5809600  0.0399300  0.0000000    0.00000       Uiso       1.00
       C50          C  0.5456300  0.0228000  0.0000000    0.00000       Uiso       1.00
       O51          O  0.5961100  0.1228500  0.0000000    0.00000       Uiso       1.00
       C52          C  0.6016400  0.1644300  0.0000000    0.00000       Uiso       1.00
       C53          C  0.6415200  0.2032300  0.0000000    0.00000       Uiso       1.00
       H54          H  0.6717300  0.2024900  0.0000000    0.00000       Uiso       1.00
       C55          C  0.6415400  0.2429800  0.0000000    0.00000       Uiso       1.00
       C56          C  0.6826700  0.2833000  0.0000000    0.00000       Uiso       1.00
       H57          H  0.4589700  0.4190400  0.0000000    0.00000       Uiso       1.00
       C58          C  0.4771700  0.4543700  0.0000000    0.00000       Uiso       1.00
       O59          O  0.5267400  0.4038900  0.0000000    0.00000       Uiso       1.00
       C60          C  0.5627900  0.3983600  0.0000000    0.00000       Uiso       1.00
       C61          C  0.5617100  0.3584800  0.0000000    0.00000       Uiso       1.00
       H62          H  0.5307600  0.3282700  0.0000000    0.00000       Uiso       1.00
       C63          C  0.6014400  0.3584600  0.0000000    0.00000       Uiso       1.00
       C64          C  0.6006300  0.3173300  0.0000000    0.00000       Uiso       1.00
       H65          H  0.9600700  0.5410300  0.0000000    0.00000       Uiso       1.00
       C66          C  0.9772000  0.5228300  0.0000000    0.00000       Uiso       1.00
       O67          O  0.8771500  0.4732600  0.0000000    0.00000       Uiso       1.00
       C68          C  0.8355700  0.4372100  0.0000000    0.00000       Uiso       1.00
       C69          C  0.7967700  0.4382900  0.0000000    0.00000       Uiso       1.00
       H70          H  0.7975100  0.4692400  0.0000000    0.00000       Uiso       1.00
       C71          C  0.7570200  0.3985600  0.0000000    0.00000       Uiso       1.00
       C72          C  0.7167000  0.3993700  0.0000000    0.00000       Uiso       1.00
       H73          H  0.4190400  0.9600700  0.0000000    0.00000       Uiso       1.00
       C74          C  0.4543700  0.9772000  0.0000000    0.00000       Uiso       1.00
       O75          O  0.4038900  0.8771500  0.0000000    0.00000       Uiso       1.00
       C76          C  0.3983600  0.8355700  0.0000000    0.00000       Uiso       1.00
       C77          C  0.3584800  0.7967700  0.0000000    0.00000       Uiso       1.00
       H78          H  0.3282700  0.7975100  0.0000000    0.00000       Uiso       1.00
       C79          C  0.3584600  0.7570200  0.0000000    0.00000       Uiso       1.00
       C80          C  0.3173300  0.7167000  0.0000000    0.00000       Uiso       1.00
       H81          H  0.5410300  0.5809600  0.0000000    0.00000       Uiso       1.00
       C82          C  0.5228300  0.5456300  0.0000000    0.00000       Uiso       1.00
       O83          O  0.4732600  0.5961100  0.0000000    0.00000       Uiso       1.00
       C84          C  0.4372100  0.6016400  0.0000000    0.00000       Uiso       1.00
       C85          C  0.4382900  0.6415200  0.0000000    0.00000       Uiso       1.00
       H86          H  0.4692400  0.6717300  0.0000000    0.00000       Uiso       1.00
       C87          C  0.3985600  0.6415400  0.0000000    0.00000       Uiso       1.00
       C88          C  0.3993700  0.6826700  0.0000000    0.00000       Uiso       1.00
       H89          H  0.0399300  0.4589700  0.0000000    0.00000       Uiso       1.00
       C90          C  0.0228000  0.4771700  0.0000000    0.00000       Uiso       1.00
       O91          O  0.1228500  0.5267400  0.0000000    0.00000       Uiso       1.00
       C92          C  0.1644300  0.5627900  0.0000000    0.00000       Uiso       1.00
       C93          C  0.2032300  0.5617100  0.0000000    0.00000       Uiso       1.00
       H94          H  0.2024900  0.5307600  0.0000000    0.00000       Uiso       1.00
       C95          C  0.2429800  0.6014400  0.0000000    0.00000       Uiso       1.00
       C96          C  0.2833000  0.6006300  0.0000000    0.00000       Uiso       1.00
       C97          C  0.0458300  0.5229151  0.0000000    0.00000       Uiso       1.00
       B98          B  0.0967900  0.5483950  0.0000000    0.00000       Uiso       1.00
       C99          C  0.4770850  0.5229151  0.0000000    0.00000       Uiso       1.00
      B100          B  0.4516050  0.5483950  0.0000000    0.00000       Uiso       1.00
      C101          C  0.4770850  0.9541700  0.0000000    0.00000       Uiso       1.00
      B102          B  0.4516050  0.9032100  0.0000000    0.00000       Uiso       1.00
      C103          C  0.9541700  0.4770850  0.0000000    0.00000       Uiso       1.00
      B104          B  0.9032100  0.4516050  0.0000000    0.00000       Uiso       1.00
      C105          C  0.5229150  0.4770850  0.0000000    0.00000       Uiso       1.00
      B106          B  0.5483950  0.4516050  0.0000000    0.00000       Uiso       1.00
      C107          C  0.5229150  0.0458300  0.0000000    0.00000       Uiso       1.00
      B108          B  0.5483950  0.0967900  0.0000000    0.00000       Uiso       1.00
