data_MC-COF-TP-E11E22
_audit_creation_date              0000-00-00
_audit_creation_method            'LanYouShi'
_symmetry_space_group_name_H-M    'P1'
_cell_length_a                    30.1749992
_cell_length_b                    52.2719002
_cell_length_c                    3.6528001
_cell_angle_alpha                 90.0000000
_cell_angle_beta                  110.0925980
_cell_angle_gamma                 90.0000000
loop_
_atom_site_label
_atom_site_type_symbol
_atom_site_fract_x
_atom_site_fract_y
_atom_site_fract_z
_atom_site_U_iso_or_equiv
_atom_site_adp_type
_atom_site_occupancy
        C1          C  0.5232670  0.8093380  0.4712150    0.00000       Uiso       1.00
        C2          C  0.5478910  0.8331199  0.4865130    0.00000       Uiso       1.00
        C3          C  0.5958580  0.8321491  0.5010460    0.00000       Uiso       1.00
        C4          C  0.6180640  0.8088960  0.4907930    0.00000       Uiso       1.00
        C5          C  0.5940291  0.7860870  0.4657580    0.00000       Uiso       1.00
        C6          C  0.5473470  0.7860160  0.4545510    0.00000       Uiso       1.00
        C7          C  0.0232670  0.3093390  0.4712150    0.00000       Uiso       1.00
        C8          C  0.0478910  0.3331200  0.4865130    0.00000       Uiso       1.00
        C9          C  0.0958580  0.3321490  0.5010460    0.00000       Uiso       1.00
       C10          C  0.1180630  0.3088970  0.4907930    0.00000       Uiso       1.00
       C11          C  0.0940290  0.2860870  0.4657580    0.00000       Uiso       1.00
       C12          C  0.0473460  0.2860160  0.4545510    0.00000       Uiso       1.00
       C13          C  0.5232670  0.1906610  0.4712150    0.00000       Uiso       1.00
       C14          C  0.5478910  0.1668790  0.4865130    0.00000       Uiso       1.00
       C15          C  0.5958580  0.1678510  0.5010460    0.00000       Uiso       1.00
       C16          C  0.6180640  0.1911030  0.4907930    0.00000       Uiso       1.00
       C17          C  0.5940291  0.2139120  0.4657580    0.00000       Uiso       1.00
       C18          C  0.5473470  0.2139830  0.4545510    0.00000       Uiso       1.00
       C19          C  0.0232670  0.6906611  0.4712150    0.00000       Uiso       1.00
       C20          C  0.0478910  0.6668790  0.4865130    0.00000       Uiso       1.00
       C21          C  0.0958580  0.6678500  0.5010460    0.00000       Uiso       1.00
       C22          C  0.1180630  0.6911030  0.4907930    0.00000       Uiso       1.00
       C23          C  0.0940290  0.7139121  0.4657580    0.00000       Uiso       1.00
       C24          C  0.0473460  0.7139830  0.4545510    0.00000       Uiso       1.00
       O25          O  0.6216640  0.7660120  0.4543310    0.00000       Uiso       1.00
       O26          O  0.1216630  0.2660130  0.4543310    0.00000       Uiso       1.00
       O27          O  0.6216640  0.2339870  0.4543310    0.00000       Uiso       1.00
       O28          O  0.1216630  0.7339870  0.4543310    0.00000       Uiso       1.00
       B29          B  0.6660340  0.7773420  0.4749820    0.00000       Uiso       1.00
       B30          B  0.1660330  0.2773420  0.4749820    0.00000       Uiso       1.00
       B31          B  0.6660340  0.2226580  0.4749820    0.00000       Uiso       1.00
       B32          B  0.1660330  0.7226570  0.4749820    0.00000       Uiso       1.00
       O33          O  0.6625090  0.8047560  0.4985420    0.00000       Uiso       1.00
       O34          O  0.1625080  0.3047560  0.4985420    0.00000       Uiso       1.00
       O35          O  0.6625090  0.1952440  0.4985420    0.00000       Uiso       1.00
       O36          O  0.1625080  0.6952429  0.4985420    0.00000       Uiso       1.00
       C37          C  0.4758260  0.8094600  0.4701670    0.00000       Uiso       1.00
       C38          C  0.4515000  0.8333530  0.4543690    0.00000       Uiso       1.00
       C39          C  0.4514620  0.7862560  0.4873300    0.00000       Uiso       1.00
       C40          C  0.4047990  0.7865400  0.4763070    0.00000       Uiso       1.00
       C41          C  0.3810330  0.8094420  0.4512020    0.00000       Uiso       1.00
       C42          C  0.4035430  0.8325960  0.4405340    0.00000       Uiso       1.00
       C43          C  0.9758270  0.3094610  0.4701670    0.00000       Uiso       1.00
       C44          C  0.9515010  0.3333530  0.4543690    0.00000       Uiso       1.00
       C45          C  0.9514630  0.2862560  0.4873300    0.00000       Uiso       1.00
       C46          C  0.9047990  0.2865410  0.4763070    0.00000       Uiso       1.00
       C47          C  0.8810340  0.3094420  0.4512020    0.00000       Uiso       1.00
       C48          C  0.9035430  0.3325970  0.4405340    0.00000       Uiso       1.00
       C49          C  0.4758260  0.1905390  0.4701670    0.00000       Uiso       1.00
       C50          C  0.4515000  0.1666470  0.4543690    0.00000       Uiso       1.00
       C51          C  0.4514620  0.2137430  0.4873300    0.00000       Uiso       1.00
       C52          C  0.4047990  0.2134590  0.4763070    0.00000       Uiso       1.00
       C53          C  0.3810330  0.1905580  0.4512020    0.00000       Uiso       1.00
       C54          C  0.4035430  0.1674030  0.4405340    0.00000       Uiso       1.00
       C55          C  0.9758270  0.6905390  0.4701670    0.00000       Uiso       1.00
       C56          C  0.9515010  0.6666461  0.4543690    0.00000       Uiso       1.00
       C57          C  0.9514630  0.7137430  0.4873300    0.00000       Uiso       1.00
       C58          C  0.9047990  0.7134590  0.4763070    0.00000       Uiso       1.00
       C59          C  0.8810340  0.6905570  0.4512020    0.00000       Uiso       1.00
       C60          C  0.9035430  0.6674030  0.4405340    0.00000       Uiso       1.00
       O61          O  0.3365420  0.8054580  0.4437340    0.00000       Uiso       1.00
       O62          O  0.8365420  0.3054590  0.4437340    0.00000       Uiso       1.00
       O63          O  0.3365420  0.1945410  0.4437340    0.00000       Uiso       1.00
       O64          O  0.8365420  0.6945410  0.4437340    0.00000       Uiso       1.00
       B65          B  0.3327270  0.7780580  0.4674600    0.00000       Uiso       1.00
       B66          B  0.8327270  0.2780590  0.4674600    0.00000       Uiso       1.00
       B67          B  0.3327270  0.2219410  0.4674600    0.00000       Uiso       1.00
       B68          B  0.8327270  0.7219410  0.4674600    0.00000       Uiso       1.00
       O69          O  0.3769660  0.7665750  0.4880170    0.00000       Uiso       1.00
       O70          O  0.8769671  0.2665750  0.4880170    0.00000       Uiso       1.00
       O71          O  0.3769660  0.2334240  0.4880170    0.00000       Uiso       1.00
       O72          O  0.8769671  0.7334240  0.4880170    0.00000       Uiso       1.00
       C73          C  0.5242020  0.8568720  0.4831190    0.00000       Uiso       1.00
       C74          C  0.4754620  0.8569970  0.4563510    0.00000       Uiso       1.00
       C75          C  0.4524390  0.8811680  0.4356670    0.00000       Uiso       1.00
       C76          C  0.4765990  0.9041181  0.4504790    0.00000       Uiso       1.00
       C77          C  0.5236570  0.9039701  0.4849700    0.00000       Uiso       1.00
       C78          C  0.5475340  0.8809170  0.5019850    0.00000       Uiso       1.00
       C79          C  0.0242020  0.3568720  0.4831190    0.00000       Uiso       1.00
       C80          C  0.0236560  0.4039700  0.4849700    0.00000       Uiso       1.00
       C81          C  0.0475330  0.3809180  0.5019850    0.00000       Uiso       1.00
       C82          C  0.5242020  0.1431280  0.4831190    0.00000       Uiso       1.00
       C83          C  0.4754620  0.1430020  0.4563510    0.00000       Uiso       1.00
       C84          C  0.4524390  0.1188310  0.4356670    0.00000       Uiso       1.00
       C85          C  0.4765990  0.0958810  0.4504790    0.00000       Uiso       1.00
       C86          C  0.5236570  0.0960300  0.4849700    0.00000       Uiso       1.00
       C87          C  0.5475340  0.1190820  0.5019850    0.00000       Uiso       1.00
       C88          C  0.0242020  0.6431280  0.4831190    0.00000       Uiso       1.00
       C89          C  0.0236560  0.5960290  0.4849700    0.00000       Uiso       1.00
       C90          C  0.0475330  0.6190820  0.5019850    0.00000       Uiso       1.00
       C91          C  0.9754621  0.3569980  0.4563510    0.00000       Uiso       1.00
       C92          C  0.9524400  0.3811690  0.4356670    0.00000       Uiso       1.00
       C93          C  0.9765990  0.4041180  0.4504790    0.00000       Uiso       1.00
       C94          C  0.9754621  0.6430020  0.4563510    0.00000       Uiso       1.00
       C95          C  0.9524400  0.6188309  0.4356670    0.00000       Uiso       1.00
       C96          C  0.9765990  0.5958810  0.4504790    0.00000       Uiso       1.00
       O97          O  0.5402810  0.9280121  0.4958560    0.00000       Uiso       1.00
       O98          O  0.0402810  0.4280120  0.4958560    0.00000       Uiso       1.00
       O99          O  0.5402810  0.0719880  0.4958560    0.00000       Uiso       1.00
      O100          O  0.0402810  0.5719870  0.4958560    0.00000       Uiso       1.00
      B101          B  0.5004950  0.9442030  0.4655010    0.00000       Uiso       1.00
      B102          B  0.0004940  0.4442040  0.4655010    0.00000       Uiso       1.00
      B103          B  0.5004950  0.0557960  0.4655010    0.00000       Uiso       1.00
      B104          B  0.0004940  0.5557960  0.4655010    0.00000       Uiso       1.00
      O105          O  0.4603970  0.9282960  0.4370520    0.00000       Uiso       1.00
      O106          O  0.9603980  0.4282960  0.4370520    0.00000       Uiso       1.00
      O107          O  0.4603970  0.0717040  0.4370520    0.00000       Uiso       1.00
      O108          O  0.9603980  0.5717030  0.4370520    0.00000       Uiso       1.00
      H109          H  0.6161620  0.8478620  0.5162780    0.00000       Uiso       1.00
      H110          H  0.5322850  0.7684450  0.4310610    0.00000       Uiso       1.00
      H111          H  0.4662930  0.7686230  0.5110390    0.00000       Uiso       1.00
      H112          H  0.3834780  0.8484070  0.4254990    0.00000       Uiso       1.00
      H113          H  0.4180480  0.8831290  0.4101990    0.00000       Uiso       1.00
      H114          H  0.5819450  0.8827250  0.5273170    0.00000       Uiso       1.00
      H115          H  0.1161610  0.3478620  0.5162780    0.00000       Uiso       1.00
      H116          H  0.0322840  0.2684460  0.4310610    0.00000       Uiso       1.00
      H117          H  0.0819450  0.3827260  0.5273170    0.00000       Uiso       1.00
      H118          H  0.6161620  0.1521370  0.5162780    0.00000       Uiso       1.00
      H119          H  0.5322850  0.2315540  0.4310610    0.00000       Uiso       1.00
      H120          H  0.4662930  0.2313760  0.5110390    0.00000       Uiso       1.00
      H121          H  0.3834780  0.1515920  0.4254990    0.00000       Uiso       1.00
      H122          H  0.4180480  0.1168700  0.4101990    0.00000       Uiso       1.00
      H123          H  0.5819450  0.1172740  0.5273170    0.00000       Uiso       1.00
      H124          H  0.1161610  0.6521370  0.5162780    0.00000       Uiso       1.00
      H125          H  0.0322840  0.7315540  0.4310610    0.00000       Uiso       1.00
      H126          H  0.0819450  0.6172740  0.5273170    0.00000       Uiso       1.00
      H127          H  0.9662930  0.2686230  0.5110390    0.00000       Uiso       1.00
      H128          H  0.8834790  0.3484070  0.4254990    0.00000       Uiso       1.00
      H129          H  0.9180480  0.3831300  0.4101990    0.00000       Uiso       1.00
      H130          H  0.9662930  0.7313760  0.5110390    0.00000       Uiso       1.00
      H131          H  0.8834790  0.6515920  0.4254990    0.00000       Uiso       1.00
      H132          H  0.9180480  0.6168699  0.4101990    0.00000       Uiso       1.00
      C133          C  0.7900740  0.7360871  0.4700190    0.00000       Uiso       1.00
      C134          C  0.2900740  0.2360870  0.4700190    0.00000       Uiso       1.00
      C135          C  0.7900740  0.2639120  0.4700190    0.00000       Uiso       1.00
      C136          C  0.2900740  0.7639120  0.4700190    0.00000       Uiso       1.00
      C137          C  0.7483590  0.7227850  0.4427080    0.00000       Uiso       1.00
      C138          C  0.2483590  0.2227850  0.4427080    0.00000       Uiso       1.00
      C139          C  0.7483590  0.2772150  0.4427080    0.00000       Uiso       1.00
      C140          C  0.2483590  0.7772140  0.4427080    0.00000       Uiso       1.00
      C141          C  0.7503470  0.7764290  0.4999480    0.00000       Uiso       1.00
      C142          C  0.2503470  0.2764300  0.4999480    0.00000       Uiso       1.00
      C143          C  0.7503470  0.2235700  0.4999480    0.00000       Uiso       1.00
      C144          C  0.2503470  0.7235700  0.4999480    0.00000       Uiso       1.00
      H145          H  0.7470820  0.7032580  0.4219440    0.00000       Uiso       1.00
      H146          H  0.2470810  0.2032580  0.4219440    0.00000       Uiso       1.00
      H147          H  0.7470820  0.2967410  0.4219440    0.00000       Uiso       1.00
      H148          H  0.2470810  0.7967410  0.4219440    0.00000       Uiso       1.00
      C149          C  0.7907680  0.7630100  0.4992770    0.00000       Uiso       1.00
      C150          C  0.2907670  0.2630100  0.4992770    0.00000       Uiso       1.00
      C151          C  0.7907680  0.2369890  0.4992770    0.00000       Uiso       1.00
      C152          C  0.2907670  0.7369890  0.4992770    0.00000       Uiso       1.00
      C153          C  0.7079300  0.7362081  0.4433920    0.00000       Uiso       1.00
      C154          C  0.2079290  0.2362080  0.4433920    0.00000       Uiso       1.00
      C155          C  0.7079300  0.2637920  0.4433920    0.00000       Uiso       1.00
      C156          C  0.2079290  0.7637910  0.4433920    0.00000       Uiso       1.00
      H157          H  0.8206089  0.7730600  0.5192350    0.00000       Uiso       1.00
      H158          H  0.3206090  0.2730600  0.5192350    0.00000       Uiso       1.00
      H159          H  0.8206089  0.2269400  0.5192350    0.00000       Uiso       1.00
      H160          H  0.3206090  0.7269390  0.5192350    0.00000       Uiso       1.00
      C161          C  0.7086300  0.7631310  0.4726020    0.00000       Uiso       1.00
      C162          C  0.2086290  0.2631320  0.4726020    0.00000       Uiso       1.00
      C163          C  0.7086300  0.2368680  0.4726020    0.00000       Uiso       1.00
      C164          C  0.2086290  0.7368680  0.4726020    0.00000       Uiso       1.00
      H165          H  0.6780700  0.7261780  0.4234030    0.00000       Uiso       1.00
      H166          H  0.1780690  0.2261780  0.4234030    0.00000       Uiso       1.00
      H167          H  0.6780700  0.2738220  0.4234030    0.00000       Uiso       1.00
      H168          H  0.1780690  0.7738210  0.4234030    0.00000       Uiso       1.00
      H169          H  0.7516370  0.7959610  0.5206480    0.00000       Uiso       1.00
      H170          H  0.2516370  0.2959610  0.5206480    0.00000       Uiso       1.00
      H171          H  0.7516370  0.2040380  0.5206480    0.00000       Uiso       1.00
      H172          H  0.2516370  0.7040380  0.5206480    0.00000       Uiso       1.00
      C173          C  0.5007290  0.0273360  0.4639370    0.00000       Uiso       1.00
      C174          C  0.0007290  0.5273360  0.4639370    0.00000       Uiso       1.00
      C175          C  0.5007290  0.9726630  0.4639370    0.00000       Uiso       1.00
      C176          C  0.0007290  0.4726630  0.4639370    0.00000       Uiso       1.00
      C177          C  0.5416550  0.0133490  0.4889050    0.00000       Uiso       1.00
      C178          C  0.0416540  0.5133480  0.4889050    0.00000       Uiso       1.00
      C179          C  0.5416550  0.9866510  0.4889050    0.00000       Uiso       1.00
      C180          C  0.0416540  0.4866510  0.4889050    0.00000       Uiso       1.00
      C181          C  0.4595230  0.9865010  0.4382590    0.00000       Uiso       1.00
      C182          C  0.9595239  0.4865010  0.4382590    0.00000       Uiso       1.00
      C183          C  0.4595230  0.0134990  0.4382590    0.00000       Uiso       1.00
      C184          C  0.9595239  0.5134980  0.4382590    0.00000       Uiso       1.00
      N185          N  0.5839430  0.0227730  0.5151960    0.00000       Uiso       1.00
      N186          N  0.0839420  0.5227720  0.5151960    0.00000       Uiso       1.00
      N187          N  0.5839430  0.9772270  0.5151960    0.00000       Uiso       1.00
      N188          N  0.0839420  0.4772270  0.5151960    0.00000       Uiso       1.00
      S189          S  0.6244650  0.0000000  0.5418750    0.00000       Uiso       1.00
      S190          S  0.1244650  0.5000000  0.5418750    0.00000       Uiso       1.00
      H191          H  0.4292820  0.0229660  0.4218660    0.00000       Uiso       1.00
      H192          H  0.9292820  0.5229660  0.4218660    0.00000       Uiso       1.00
      H193          H  0.4292820  0.9770330  0.4218660    0.00000       Uiso       1.00
      H194          H  0.9292820  0.4770330  0.4218660    0.00000       Uiso       1.00
