data_MC-COF-TP-E11E71
_audit_creation_date              0000-00-00
_audit_creation_method            'LanYouShi'
_symmetry_space_group_name_H-M    'P1'
_cell_length_a                    56.4300003
_cell_length_b                    3.5334001
_cell_length_c                    37.4959984
_cell_angle_alpha                 90.0000000
_cell_angle_beta                  90.0000000
_cell_angle_gamma                 90.0000000
loop_
_atom_site_label
_atom_site_type_symbol
_atom_site_fract_x
_atom_site_fract_y
_atom_site_fract_z
_atom_site_U_iso_or_equiv
_atom_site_adp_type
_atom_site_occupancy
        C1          C  0.6326050  0.5000060  0.9805179    0.00000       Uiso       1.00
        C2          C  0.1321420  0.5000060  0.4806290    0.00000       Uiso       1.00
        C3          C  0.3676620  0.5000060  0.0189440    0.00000       Uiso       1.00
        C4          C  0.8679650  0.5000060  0.5190520    0.00000       Uiso       1.00
        C5          C  0.3673950  0.5000060  0.9805179    0.00000       Uiso       1.00
        C6          C  0.8678580  0.5000060  0.4806290    0.00000       Uiso       1.00
        C7          C  0.6323391  0.5000060  0.0189440    0.00000       Uiso       1.00
        C8          C  0.1320350  0.5000060  0.5190520    0.00000       Uiso       1.00
        C9          C  0.6104100  0.5000060  0.9620960    0.00000       Uiso       1.00
       C10          C  0.1098600  0.5000060  0.4623830    0.00000       Uiso       1.00
       C11          C  0.3901370  0.5000060  0.0366980    0.00000       Uiso       1.00
       C12          C  0.8903430  0.5000060  0.5370160    0.00000       Uiso       1.00
       C13          C  0.3895900  0.5000060  0.9620960    0.00000       Uiso       1.00
       C14          C  0.8901399  0.5000060  0.4623830    0.00000       Uiso       1.00
       C15          C  0.6098630  0.5000060  0.0366980    0.00000       Uiso       1.00
       C16          C  0.1096580  0.5000060  0.5370160    0.00000       Uiso       1.00
       C17          C  0.5890770  0.5000060  0.9806709    0.00000       Uiso       1.00
       C18          C  0.0885610  0.5000060  0.4811260    0.00000       Uiso       1.00
       C19          C  0.4112760  0.5000060  0.0174870    0.00000       Uiso       1.00
       C20          C  0.9115300  0.5000060  0.5180070    0.00000       Uiso       1.00
       C21          C  0.4109230  0.5000060  0.9806709    0.00000       Uiso       1.00
       C22          C  0.9114390  0.5000060  0.4811260    0.00000       Uiso       1.00
       C23          C  0.5887240  0.5000060  0.0174870    0.00000       Uiso       1.00
       C24          C  0.0884700  0.5000060  0.5180070    0.00000       Uiso       1.00
       H25          H  0.6077240  0.5000060  0.0635320    0.00000       Uiso       1.00
       H26          H  0.1076700  0.5000060  0.5638870    0.00000       Uiso       1.00
       H27          H  0.3914510  0.5000060  0.9351990    0.00000       Uiso       1.00
       H28          H  0.8919720  0.5000060  0.4354870    0.00000       Uiso       1.00
       H29          H  0.3922760  0.5000060  0.0635320    0.00000       Uiso       1.00
       H30          H  0.8923300  0.5000060  0.5638870    0.00000       Uiso       1.00
       H31          H  0.6085490  0.5000060  0.9351990    0.00000       Uiso       1.00
       H32          H  0.1080280  0.5000060  0.4354870    0.00000       Uiso       1.00
       H33          H  0.6400610  0.5000060  0.0921260    0.00000       Uiso       1.00
       H34          H  0.1400060  0.5000060  0.5922780    0.00000       Uiso       1.00
       H35          H  0.3588850  0.5000060  0.9075000    0.00000       Uiso       1.00
       H36          H  0.8594560  0.5000060  0.4075240    0.00000       Uiso       1.00
       H37          H  0.3599390  0.5000060  0.0921260    0.00000       Uiso       1.00
       H38          H  0.8599950  0.5000060  0.5922780    0.00000       Uiso       1.00
       H39          H  0.6411150  0.5000060  0.9075000    0.00000       Uiso       1.00
       H40          H  0.1405440  0.5000060  0.4075240    0.00000       Uiso       1.00
       H41          H  0.7143340  0.5000060  0.0288830    0.00000       Uiso       1.00
       H42          H  0.2140830  0.5000060  0.5285790    0.00000       Uiso       1.00
       H43          H  0.2853160  0.5000060  0.9725330    0.00000       Uiso       1.00
       H44          H  0.7857520  0.5000060  0.4722060    0.00000       Uiso       1.00
       H45          H  0.2856660  0.5000060  0.0288830    0.00000       Uiso       1.00
       H46          H  0.7859170  0.5000060  0.5285790    0.00000       Uiso       1.00
       H47          H  0.7146840  0.5000060  0.9725330    0.00000       Uiso       1.00
       H48          H  0.2142480  0.5000060  0.4722060    0.00000       Uiso       1.00
       C49          C  0.4746050  0.5000060  0.9979950    0.00000       Uiso       1.00
       C50          C  0.9748180  0.5000060  0.4993170    0.00000       Uiso       1.00
       C51          C  0.5253950  0.5000060  0.9979950    0.00000       Uiso       1.00
       C52          C  0.0251820  0.5000060  0.4993170    0.00000       Uiso       1.00
       C53          C  0.4876440  0.5000060  0.9658670    0.00000       Uiso       1.00
       C54          C  0.9875270  0.5000060  0.4668470    0.00000       Uiso       1.00
       C55          C  0.5125090  0.5000060  0.0303920    0.00000       Uiso       1.00
       C56          C  0.0124700  0.5000060  0.5317830    0.00000       Uiso       1.00
       C57          C  0.5123560  0.5000060  0.9658670    0.00000       Uiso       1.00
       C58          C  0.0124730  0.5000060  0.4668470    0.00000       Uiso       1.00
       C59          C  0.4874920  0.5000060  0.0303920    0.00000       Uiso       1.00
       C60          C  0.9875310  0.5000060  0.5317830    0.00000       Uiso       1.00
       H61          H  0.9786429  0.5000060  0.4429760    0.00000       Uiso       1.00
       H62          H  0.5213430  0.5000060  0.0542340    0.00000       Uiso       1.00
       H63          H  0.0213440  0.5000060  0.5556640    0.00000       Uiso       1.00
       H64          H  0.0213570  0.5000060  0.4429760    0.00000       Uiso       1.00
       H65          H  0.4786570  0.5000060  0.0542340    0.00000       Uiso       1.00
       H66          H  0.9786560  0.5000060  0.5556640    0.00000       Uiso       1.00
       C67          C  0.7810450  0.5000060  0.3323460    0.00000       Uiso       1.00
       C68          C  0.2804140  0.5000060  0.8326250    0.00000       Uiso       1.00
       C69          C  0.2180090  0.5000060  0.6684470    0.00000       Uiso       1.00
       C70          C  0.7181760  0.5000060  0.1685530    0.00000       Uiso       1.00
       C71          C  0.2189560  0.5000060  0.3323460    0.00000       Uiso       1.00
       C72          C  0.7195860  0.5000060  0.8326250    0.00000       Uiso       1.00
       C73          C  0.7819920  0.5000060  0.6684470    0.00000       Uiso       1.00
       C74          C  0.2818240  0.5000060  0.1685530    0.00000       Uiso       1.00
       C75          C  0.7560180  0.5000060  0.3321100    0.00000       Uiso       1.00
       C76          C  0.2553930  0.5000060  0.8322520    0.00000       Uiso       1.00
       C77          C  0.2430310  0.5000060  0.6688610    0.00000       Uiso       1.00
       C78          C  0.7432000  0.5000060  0.1688190    0.00000       Uiso       1.00
       C79          C  0.2439830  0.5000060  0.3321100    0.00000       Uiso       1.00
       C80          C  0.7446070  0.5000060  0.8322520    0.00000       Uiso       1.00
       C81          C  0.7569690  0.5000060  0.6688610    0.00000       Uiso       1.00
       C82          C  0.2568000  0.5000060  0.1688190    0.00000       Uiso       1.00
       C83          C  0.7810710  0.5000060  0.2668420    0.00000       Uiso       1.00
       C84          C  0.2806310  0.5000060  0.7671270    0.00000       Uiso       1.00
       C85          C  0.2177750  0.5000060  0.7339580    0.00000       Uiso       1.00
       C86          C  0.7181150  0.5000060  0.2340540    0.00000       Uiso       1.00
       C87          C  0.2189290  0.5000060  0.2668420    0.00000       Uiso       1.00
       C88          C  0.7193690  0.5000060  0.7671270    0.00000       Uiso       1.00
       C89          C  0.7822250  0.5000060  0.7339580    0.00000       Uiso       1.00
       C90          C  0.2818860  0.5000060  0.2340540    0.00000       Uiso       1.00
       H91          H  0.7469490  0.5000060  0.3558410    0.00000       Uiso       1.00
       H92          H  0.2463110  0.5000060  0.8559600    0.00000       Uiso       1.00
       H93          H  0.2521840  0.5000060  0.6452030    0.00000       Uiso       1.00
       H94          H  0.7522510  0.5000060  0.1450760    0.00000       Uiso       1.00
       H95          H  0.2530510  0.5000060  0.3558410    0.00000       Uiso       1.00
       H96          H  0.7536900  0.5000060  0.8559600    0.00000       Uiso       1.00
       H97          H  0.7478160  0.5000060  0.6452030    0.00000       Uiso       1.00
       H98          H  0.2477500  0.5000060  0.1450760    0.00000       Uiso       1.00
       C99          C  0.7933940  0.5000060  0.2995890    0.00000       Uiso       1.00
      C100          C  0.2928590  0.5000060  0.7999480    0.00000       Uiso       1.00
      C101          C  0.2055530  0.5000060  0.7011170    0.00000       Uiso       1.00
      C102          C  0.7058000  0.5000060  0.2012870    0.00000       Uiso       1.00
      C103          C  0.2066070  0.5000060  0.2995890    0.00000       Uiso       1.00
      C104          C  0.7071410  0.5000060  0.7999480    0.00000       Uiso       1.00
      C105          C  0.7944471  0.5000060  0.7011170    0.00000       Uiso       1.00
      C106          C  0.2942000  0.5000060  0.2012870    0.00000       Uiso       1.00
      C107          C  0.7433100  0.5000060  0.2996850    0.00000       Uiso       1.00
      C108          C  0.2427770  0.5000060  0.7997470    0.00000       Uiso       1.00
      C109          C  0.2556330  0.5000060  0.7013690    0.00000       Uiso       1.00
      C110          C  0.7558930  0.5000060  0.2012400    0.00000       Uiso       1.00
      C111          C  0.2566900  0.5000060  0.2996850    0.00000       Uiso       1.00
      C112          C  0.7572230  0.5000060  0.7997470    0.00000       Uiso       1.00
      C113          C  0.7443670  0.5000060  0.7013690    0.00000       Uiso       1.00
      C114          C  0.2441070  0.5000060  0.2012400    0.00000       Uiso       1.00
      H115          H  0.8115780  0.5000060  0.2996110    0.00000       Uiso       1.00
      H116          H  0.3110630  0.5000060  0.8001050    0.00000       Uiso       1.00
      H117          H  0.1873710  0.5000060  0.7009590    0.00000       Uiso       1.00
      H118          H  0.6876020  0.5000060  0.2011960    0.00000       Uiso       1.00
      H119          H  0.1884230  0.5000060  0.2996110    0.00000       Uiso       1.00
      H120          H  0.6889380  0.5000060  0.8001050    0.00000       Uiso       1.00
      H121          H  0.8126290  0.5000060  0.7009590    0.00000       Uiso       1.00
      H122          H  0.3123980  0.5000060  0.2011960    0.00000       Uiso       1.00
      C123          C  0.7558940  0.5000060  0.2668670    0.00000       Uiso       1.00
      C124          C  0.2554560  0.5000060  0.7670060    0.00000       Uiso       1.00
      C125          C  0.2429510  0.5000060  0.7341020    0.00000       Uiso       1.00
      C126          C  0.7432940  0.5000060  0.2340440    0.00000       Uiso       1.00
      C127          C  0.2441070  0.5000060  0.2668670    0.00000       Uiso       1.00
      C128          C  0.7445450  0.5000060  0.7670060    0.00000       Uiso       1.00
      C129          C  0.7570490  0.5000060  0.7341020    0.00000       Uiso       1.00
      C130          C  0.2567070  0.5000060  0.2340440    0.00000       Uiso       1.00
      C131          C  0.7058500  0.5000060  0.2668480    0.00000       Uiso       1.00
      C132          C  0.2054140  0.5000060  0.7666720    0.00000       Uiso       1.00
      C133          C  0.2929960  0.5000060  0.7344210    0.00000       Uiso       1.00
      C134          C  0.7933460  0.5000060  0.2340590    0.00000       Uiso       1.00
      C135          C  0.2941510  0.5000060  0.2668480    0.00000       Uiso       1.00
      C136          C  0.7945860  0.5000060  0.7666720    0.00000       Uiso       1.00
      C137          C  0.7070050  0.5000060  0.7344210    0.00000       Uiso       1.00
      C138          C  0.2066540  0.5000060  0.2340590    0.00000       Uiso       1.00
      C139          C  0.7808951  0.5000060  0.2016180    0.00000       Uiso       1.00
      C140          C  0.2806340  0.5000060  0.7019030    0.00000       Uiso       1.00
      C141          C  0.2177750  0.5000060  0.7991990    0.00000       Uiso       1.00
      C142          C  0.7183060  0.5000060  0.2992940    0.00000       Uiso       1.00
      C143          C  0.2191050  0.5000060  0.2016180    0.00000       Uiso       1.00
      C144          C  0.7193661  0.5000060  0.7019030    0.00000       Uiso       1.00
      C145          C  0.7822250  0.5000060  0.7991990    0.00000       Uiso       1.00
      C146          C  0.2816950  0.5000060  0.2992940    0.00000       Uiso       1.00
      H147          H  0.6877160  0.5000060  0.2674120    0.00000       Uiso       1.00
      H148          H  0.1872790  0.5000060  0.7671190    0.00000       Uiso       1.00
      H149          H  0.3111310  0.5000060  0.7339710    0.00000       Uiso       1.00
      H150          H  0.8114800  0.5000060  0.2334960    0.00000       Uiso       1.00
      H151          H  0.3122840  0.5000060  0.2674120    0.00000       Uiso       1.00
      H152          H  0.8127220  0.5000060  0.7671190    0.00000       Uiso       1.00
      H153          H  0.6888690  0.5000060  0.7339710    0.00000       Uiso       1.00
      H154          H  0.1885200  0.5000060  0.2334960    0.00000       Uiso       1.00
      H155          H  0.7902790  0.5000060  0.1782580    0.00000       Uiso       1.00
      H156          H  0.2900830  0.5000060  0.6786030    0.00000       Uiso       1.00
      H157          H  0.2083260  0.5000060  0.8224980    0.00000       Uiso       1.00
      H158          H  0.7089210  0.5000060  0.3226520    0.00000       Uiso       1.00
      H159          H  0.2097210  0.5000060  0.1782580    0.00000       Uiso       1.00
      H160          H  0.7099170  0.5000060  0.6786030    0.00000       Uiso       1.00
      H161          H  0.7916750  0.5000060  0.8224980    0.00000       Uiso       1.00
      H162          H  0.2910790  0.5000060  0.3226520    0.00000       Uiso       1.00
      N163          N  0.4789060  0.5000060  0.9326400    0.00000       Uiso       1.00
      N164          N  0.5210940  0.5000060  0.9326400    0.00000       Uiso       1.00
      S165          S  0.5000000  0.5000060  0.9008320    0.00000       Uiso       1.00
      O166          O  0.5670420  0.5000060  0.9672720    0.00000       Uiso       1.00
      O167          O  0.0663410  0.5000060  0.4679770    0.00000       Uiso       1.00
      O168          O  0.4336490  0.5000060  0.0300060    0.00000       Uiso       1.00
      O169          O  0.9338020  0.5000060  0.5309190    0.00000       Uiso       1.00
      O170          O  0.4329590  0.5000060  0.9672720    0.00000       Uiso       1.00
      O171          O  0.9336590  0.5000060  0.4679770    0.00000       Uiso       1.00
      O172          O  0.5663510  0.5000060  0.0300060    0.00000       Uiso       1.00
      O173          O  0.0661980  0.5000060  0.5309190    0.00000       Uiso       1.00
      B174          B  0.5518170  0.5000060  0.9982101    0.00000       Uiso       1.00
      B175          B  0.0515820  0.5000060  0.4993750    0.00000       Uiso       1.00
      B176          B  0.4481840  0.5000060  0.9982101    0.00000       Uiso       1.00
      B177          B  0.9484190  0.5000060  0.4993750    0.00000       Uiso       1.00
      C178          C  0.6546450  0.5000060  0.9617199    0.00000       Uiso       1.00
      C179          C  0.6766440  0.5000060  0.9811950    0.00000       Uiso       1.00
      C180          C  0.6555740  0.5000060  0.9235790    0.00000       Uiso       1.00
      C181          C  0.6771420  0.5000060  0.9055861    0.00000       Uiso       1.00
      C182          C  0.6982920  0.5000060  0.9242380    0.00000       Uiso       1.00
      C183          C  0.6983320  0.5000060  0.9613810    0.00000       Uiso       1.00
      C184          C  0.1541450  0.5000060  0.4617120    0.00000       Uiso       1.00
      C185          C  0.1762040  0.5000060  0.4810660    0.00000       Uiso       1.00
      C186          C  0.1550040  0.5000060  0.4235640    0.00000       Uiso       1.00
      C187          C  0.1765410  0.5000060  0.4054560    0.00000       Uiso       1.00
      C188          C  0.1977120  0.5000060  0.4240260    0.00000       Uiso       1.00
      C189          C  0.1978460  0.5000060  0.4611560    0.00000       Uiso       1.00
      C190          C  0.3458190  0.5000060  0.0382830    0.00000       Uiso       1.00
      C191          C  0.3236000  0.5000060  0.0193350    0.00000       Uiso       1.00
      C192          C  0.3452940  0.5000060  0.0764490    0.00000       Uiso       1.00
      C193          C  0.3239050  0.5000060  0.0949750    0.00000       Uiso       1.00
      C194          C  0.3025840  0.5000060  0.0767590    0.00000       Uiso       1.00
      C195          C  0.3021350  0.5000060  0.0396460    0.00000       Uiso       1.00
      C196          C  0.8460770  0.5000060  0.5382650    0.00000       Uiso       1.00
      C197          C  0.8239090  0.5000060  0.5192010    0.00000       Uiso       1.00
      C198          C  0.8454441  0.5000060  0.5764250    0.00000       Uiso       1.00
      C199          C  0.8240180  0.5000060  0.5948240    0.00000       Uiso       1.00
      C200          C  0.8027450  0.5000060  0.5765270    0.00000       Uiso       1.00
      C201          C  0.8023860  0.5000060  0.5394010    0.00000       Uiso       1.00
      C202          C  0.3453560  0.5000060  0.9617199    0.00000       Uiso       1.00
      C203          C  0.3233560  0.5000060  0.9811950    0.00000       Uiso       1.00
      C204          C  0.3444260  0.5000060  0.9235790    0.00000       Uiso       1.00
      C205          C  0.3228590  0.5000060  0.9055861    0.00000       Uiso       1.00
      C206          C  0.3017090  0.5000060  0.9242380    0.00000       Uiso       1.00
      C207          C  0.3016680  0.5000060  0.9613810    0.00000       Uiso       1.00
      C208          C  0.8458550  0.5000060  0.4617120    0.00000       Uiso       1.00
      C209          C  0.8237970  0.5000060  0.4810660    0.00000       Uiso       1.00
      C210          C  0.8449960  0.5000060  0.4235640    0.00000       Uiso       1.00
      C211          C  0.8234590  0.5000060  0.4054560    0.00000       Uiso       1.00
      C212          C  0.8022890  0.5000060  0.4240260    0.00000       Uiso       1.00
      C213          C  0.8021541  0.5000060  0.4611560    0.00000       Uiso       1.00
      C214          C  0.6541810  0.5000060  0.0382830    0.00000       Uiso       1.00
      C215          C  0.6764001  0.5000060  0.0193350    0.00000       Uiso       1.00
      C216          C  0.6547060  0.5000060  0.0764490    0.00000       Uiso       1.00
      C217          C  0.6760950  0.5000060  0.0949750    0.00000       Uiso       1.00
      C218          C  0.6974160  0.5000060  0.0767590    0.00000       Uiso       1.00
      C219          C  0.6978650  0.5000060  0.0396460    0.00000       Uiso       1.00
      C220          C  0.1539230  0.5000060  0.5382650    0.00000       Uiso       1.00
      C221          C  0.1760920  0.5000060  0.5192010    0.00000       Uiso       1.00
      C222          C  0.1545560  0.5000060  0.5764250    0.00000       Uiso       1.00
      C223          C  0.1759820  0.5000060  0.5948240    0.00000       Uiso       1.00
      C224          C  0.1972550  0.5000060  0.5765270    0.00000       Uiso       1.00
      C225          C  0.1976140  0.5000060  0.5394010    0.00000       Uiso       1.00
      O226          O  0.7170730  0.5000060  0.9019889    0.00000       Uiso       1.00
      O227          O  0.2163740  0.5000060  0.4016460    0.00000       Uiso       1.00
      O228          O  0.2840120  0.5000060  0.0993550    0.00000       Uiso       1.00
      O229          O  0.7842180  0.5000060  0.5991460    0.00000       Uiso       1.00
      O230          O  0.2829270  0.5000060  0.9019889    0.00000       Uiso       1.00
      O231          O  0.7836260  0.5000060  0.4016460    0.00000       Uiso       1.00
      O232          O  0.7159880  0.5000060  0.0993550    0.00000       Uiso       1.00
      O233          O  0.2157820  0.5000060  0.5991460    0.00000       Uiso       1.00
      B234          B  0.7063960  0.5000060  0.8670449    0.00000       Uiso       1.00
      B235          B  0.2057010  0.5000060  0.3667130    0.00000       Uiso       1.00
      B236          B  0.2949630  0.5000060  0.1340870    0.00000       Uiso       1.00
      B237          B  0.7950860  0.5000060  0.6339450    0.00000       Uiso       1.00
      B238          B  0.2936040  0.5000060  0.8670449    0.00000       Uiso       1.00
      B239          B  0.7942990  0.5000060  0.3667130    0.00000       Uiso       1.00
      B240          B  0.7050370  0.5000060  0.1340870    0.00000       Uiso       1.00
      B241          B  0.2049140  0.5000060  0.6339450    0.00000       Uiso       1.00
      O242          O  0.6809611  0.5000060  0.8701411    0.00000       Uiso       1.00
      O243          O  0.1802360  0.5000060  0.3699720    0.00000       Uiso       1.00
      O244          O  0.3203870  0.5000060  0.1305280    0.00000       Uiso       1.00
      O245          O  0.8205320  0.5000060  0.6303580    0.00000       Uiso       1.00
      O246          O  0.3190400  0.5000060  0.8701411    0.00000       Uiso       1.00
      O247          O  0.8197640  0.5000060  0.3699720    0.00000       Uiso       1.00
      O248          O  0.6796130  0.5000060  0.1305280    0.00000       Uiso       1.00
      O249          O  0.1794680  0.5000060  0.6303580    0.00000       Uiso       1.00
