data_MC-COF-TP-E11E72
_audit_creation_date              0000-00-00
_audit_creation_method            'LanYouShi'
_symmetry_space_group_name_H-M    'P1'
_cell_length_a                    56.4146004
_cell_length_b                    37.4608002
_cell_length_c                    3.5901999
_cell_angle_alpha                 90.0000000
_cell_angle_beta                  90.0000000
_cell_angle_gamma                 90.0000000
loop_
_atom_site_label
_atom_site_type_symbol
_atom_site_fract_x
_atom_site_fract_y
_atom_site_fract_z
_atom_site_U_iso_or_equiv
_atom_site_adp_type
_atom_site_occupancy
        C1          C  0.6321461  0.0192310  0.4999970    0.00000       Uiso       1.00
        C2          C  0.6098080  0.0373510  0.4999970    0.00000       Uiso       1.00
        C3          C  0.5885570  0.0184560  0.4999970    0.00000       Uiso       1.00
        C4          C  0.1321460  0.5192310  0.4999970    0.00000       Uiso       1.00
        C5          C  0.1321460  0.4807700  0.4999970    0.00000       Uiso       1.00
        C6          C  0.1098080  0.4626500  0.4999970    0.00000       Uiso       1.00
        C7          C  0.1098080  0.5373510  0.4999970    0.00000       Uiso       1.00
        C8          C  0.0885570  0.4815440  0.4999970    0.00000       Uiso       1.00
        C9          C  0.0885570  0.5184570  0.4999970    0.00000       Uiso       1.00
       C10          C  0.3678540  0.9807710  0.4999970    0.00000       Uiso       1.00
       C11          C  0.3901920  0.9626510  0.4999970    0.00000       Uiso       1.00
       C12          C  0.4114430  0.9815449  0.4999970    0.00000       Uiso       1.00
       C13          C  0.8678540  0.4807700  0.4999970    0.00000       Uiso       1.00
       C14          C  0.8678540  0.5192310  0.4999970    0.00000       Uiso       1.00
       C15          C  0.8901920  0.5373510  0.4999970    0.00000       Uiso       1.00
       C16          C  0.8901920  0.4626500  0.4999970    0.00000       Uiso       1.00
       C17          C  0.9114430  0.5184570  0.4999970    0.00000       Uiso       1.00
       C18          C  0.9114430  0.4815440  0.4999970    0.00000       Uiso       1.00
       C19          C  0.3678540  0.0192310  0.4999970    0.00000       Uiso       1.00
       C20          C  0.3901920  0.0373510  0.4999970    0.00000       Uiso       1.00
       C21          C  0.4114430  0.0184560  0.4999970    0.00000       Uiso       1.00
       C22          C  0.6321461  0.9807710  0.4999970    0.00000       Uiso       1.00
       C23          C  0.6098080  0.9626510  0.4999970    0.00000       Uiso       1.00
       C24          C  0.5885570  0.9815449  0.4999970    0.00000       Uiso       1.00
       O25          O  0.5663060  0.0314950  0.4999970    0.00000       Uiso       1.00
       O26          O  0.0663060  0.5314960  0.4999970    0.00000       Uiso       1.00
       O27          O  0.4336940  0.9685060  0.4999970    0.00000       Uiso       1.00
       O28          O  0.9336940  0.4685050  0.4999970    0.00000       Uiso       1.00
       O29          O  0.4336940  0.0314950  0.4999970    0.00000       Uiso       1.00
       O30          O  0.9336940  0.5314960  0.4999970    0.00000       Uiso       1.00
       O31          O  0.5663060  0.9685060  0.4999970    0.00000       Uiso       1.00
       O32          O  0.0663060  0.4685050  0.4999970    0.00000       Uiso       1.00
       B33          B  0.5516030  0.0000000  0.4999970    0.00000       Uiso       1.00
       B34          B  0.0516030  0.5000010  0.4999970    0.00000       Uiso       1.00
       B35          B  0.4483980  0.0000000  0.4999970    0.00000       Uiso       1.00
       B36          B  0.9483980  0.5000010  0.4999970    0.00000       Uiso       1.00
       C37          C  0.6540980  0.0383170  0.4999970    0.00000       Uiso       1.00
       C38          C  0.6762160  0.0190860  0.4999970    0.00000       Uiso       1.00
       C39          C  0.6548470  0.0765100  0.4999970    0.00000       Uiso       1.00
       C40          C  0.6763380  0.0947770  0.4999970    0.00000       Uiso       1.00
       C41          C  0.6975650  0.0763210  0.4999970    0.00000       Uiso       1.00
       C42          C  0.6978050  0.0391590  0.4999970    0.00000       Uiso       1.00
       C43          C  0.1540980  0.5383180  0.4999970    0.00000       Uiso       1.00
       C44          C  0.1762160  0.5190870  0.4999970    0.00000       Uiso       1.00
       C45          C  0.1548470  0.5765100  0.4999970    0.00000       Uiso       1.00
       C46          C  0.1763370  0.5947780  0.4999970    0.00000       Uiso       1.00
       C47          C  0.1975640  0.5763210  0.4999970    0.00000       Uiso       1.00
       C48          C  0.1978050  0.5391590  0.4999970    0.00000       Uiso       1.00
       C49          C  0.3459020  0.9616840  0.4999970    0.00000       Uiso       1.00
       C50          C  0.3237840  0.9809150  0.4999970    0.00000       Uiso       1.00
       C51          C  0.3451540  0.9234920  0.4999970    0.00000       Uiso       1.00
       C52          C  0.3236630  0.9052240  0.4999970    0.00000       Uiso       1.00
       C53          C  0.3024360  0.9236810  0.4999970    0.00000       Uiso       1.00
       C54          C  0.3021950  0.9608431  0.4999970    0.00000       Uiso       1.00
       C55          C  0.8459020  0.4616830  0.4999970    0.00000       Uiso       1.00
       C56          C  0.8237840  0.4809140  0.4999970    0.00000       Uiso       1.00
       C57          C  0.8451540  0.4234910  0.4999970    0.00000       Uiso       1.00
       C58          C  0.8236630  0.4052240  0.4999970    0.00000       Uiso       1.00
       C59          C  0.8024361  0.4236800  0.4999970    0.00000       Uiso       1.00
       C60          C  0.8021950  0.4608420  0.4999970    0.00000       Uiso       1.00
       C61          C  0.3459020  0.0383170  0.4999970    0.00000       Uiso       1.00
       C62          C  0.3237840  0.0190860  0.4999970    0.00000       Uiso       1.00
       C63          C  0.3451540  0.0765100  0.4999970    0.00000       Uiso       1.00
       C64          C  0.3236630  0.0947770  0.4999970    0.00000       Uiso       1.00
       C65          C  0.3024360  0.0763210  0.4999970    0.00000       Uiso       1.00
       C66          C  0.3021950  0.0391590  0.4999970    0.00000       Uiso       1.00
       C67          C  0.8459020  0.5383180  0.4999970    0.00000       Uiso       1.00
       C68          C  0.8237840  0.5190870  0.4999970    0.00000       Uiso       1.00
       C69          C  0.8451540  0.5765100  0.4999970    0.00000       Uiso       1.00
       C70          C  0.8236630  0.5947780  0.4999970    0.00000       Uiso       1.00
       C71          C  0.8024361  0.5763210  0.4999970    0.00000       Uiso       1.00
       C72          C  0.8021950  0.5391590  0.4999970    0.00000       Uiso       1.00
       C73          C  0.6540980  0.9616840  0.4999970    0.00000       Uiso       1.00
       C74          C  0.6762160  0.9809150  0.4999970    0.00000       Uiso       1.00
       C75          C  0.6548470  0.9234920  0.4999970    0.00000       Uiso       1.00
       C76          C  0.6763380  0.9052240  0.4999970    0.00000       Uiso       1.00
       C77          C  0.6975650  0.9236810  0.4999970    0.00000       Uiso       1.00
       C78          C  0.6978050  0.9608431  0.4999970    0.00000       Uiso       1.00
       C79          C  0.1540980  0.4616830  0.4999970    0.00000       Uiso       1.00
       C80          C  0.1762160  0.4809140  0.4999970    0.00000       Uiso       1.00
       C81          C  0.1548470  0.4234910  0.4999970    0.00000       Uiso       1.00
       C82          C  0.1763370  0.4052240  0.4999970    0.00000       Uiso       1.00
       C83          C  0.1975640  0.4236800  0.4999970    0.00000       Uiso       1.00
       C84          C  0.1978050  0.4608420  0.4999970    0.00000       Uiso       1.00
       O85          O  0.7161890  0.0988150  0.4999970    0.00000       Uiso       1.00
       O86          O  0.2161890  0.5988160  0.4999970    0.00000       Uiso       1.00
       O87          O  0.2838110  0.9011860  0.4999970    0.00000       Uiso       1.00
       O88          O  0.7838110  0.4011860  0.4999970    0.00000       Uiso       1.00
       O89          O  0.2838110  0.0988150  0.4999970    0.00000       Uiso       1.00
       O90          O  0.7838110  0.5988160  0.4999970    0.00000       Uiso       1.00
       O91          O  0.7161890  0.9011860  0.4999970    0.00000       Uiso       1.00
       O92          O  0.2161890  0.4011860  0.4999970    0.00000       Uiso       1.00
       B93          B  0.7054190  0.1337210  0.4999970    0.00000       Uiso       1.00
       B94          B  0.2054190  0.6337220  0.4999970    0.00000       Uiso       1.00
       B95          B  0.2945810  0.8662800  0.4999970    0.00000       Uiso       1.00
       B96          B  0.7945810  0.3662790  0.4999970    0.00000       Uiso       1.00
       B97          B  0.2945810  0.1337210  0.4999970    0.00000       Uiso       1.00
       B98          B  0.7945810  0.6337220  0.4999970    0.00000       Uiso       1.00
       B99          B  0.7054190  0.8662800  0.4999970    0.00000       Uiso       1.00
      B100          B  0.2054190  0.3662790  0.4999970    0.00000       Uiso       1.00
      O101          O  0.6799610  0.1303140  0.4999970    0.00000       Uiso       1.00
      O102          O  0.1799610  0.6303150  0.4999970    0.00000       Uiso       1.00
      O103          O  0.3200390  0.8696870  0.4999970    0.00000       Uiso       1.00
      O104          O  0.8200390  0.3696860  0.4999970    0.00000       Uiso       1.00
      O105          O  0.3200390  0.1303140  0.4999970    0.00000       Uiso       1.00
      O106          O  0.8200390  0.6303150  0.4999970    0.00000       Uiso       1.00
      O107          O  0.6799610  0.8696870  0.4999970    0.00000       Uiso       1.00
      O108          O  0.1799610  0.3696860  0.4999970    0.00000       Uiso       1.00
      H109          H  0.6092120  0.9322320  0.4999970    0.00000       Uiso       1.00
      H110          H  0.6376520  0.9075049  0.4999970    0.00000       Uiso       1.00
      H111          H  0.7155960  0.9752750  0.4999970    0.00000       Uiso       1.00
      H112          H  0.1092120  0.4322320  0.4999970    0.00000       Uiso       1.00
      H113          H  0.1092120  0.5677700  0.4999970    0.00000       Uiso       1.00
      H114          H  0.1376520  0.5924970  0.4999970    0.00000       Uiso       1.00
      H115          H  0.1376520  0.4075040  0.4999970    0.00000       Uiso       1.00
      H116          H  0.2155960  0.5247270  0.4999970    0.00000       Uiso       1.00
      H117          H  0.2155960  0.4752740  0.4999970    0.00000       Uiso       1.00
      H118          H  0.3907880  0.0677690  0.4999970    0.00000       Uiso       1.00
      H119          H  0.3623480  0.0924970  0.4999970    0.00000       Uiso       1.00
      H120          H  0.2844050  0.0247270  0.4999970    0.00000       Uiso       1.00
      H121          H  0.8907880  0.5677700  0.4999970    0.00000       Uiso       1.00
      H122          H  0.8907880  0.4322320  0.4999970    0.00000       Uiso       1.00
      H123          H  0.8623480  0.4075040  0.4999970    0.00000       Uiso       1.00
      H124          H  0.8623480  0.5924970  0.4999970    0.00000       Uiso       1.00
      H125          H  0.7844051  0.4752740  0.4999970    0.00000       Uiso       1.00
      H126          H  0.7844051  0.5247270  0.4999970    0.00000       Uiso       1.00
      H127          H  0.3907880  0.9322320  0.4999970    0.00000       Uiso       1.00
      H128          H  0.3623480  0.9075049  0.4999970    0.00000       Uiso       1.00
      H129          H  0.2844050  0.9752750  0.4999970    0.00000       Uiso       1.00
      H130          H  0.6092120  0.0677690  0.4999970    0.00000       Uiso       1.00
      H131          H  0.6376520  0.0924970  0.4999970    0.00000       Uiso       1.00
      H132          H  0.7155960  0.0247270  0.4999970    0.00000       Uiso       1.00
      C133          C  0.4748060  0.0000000  0.4999970    0.00000       Uiso       1.00
      C134          C  0.9748070  0.5000010  0.4999970    0.00000       Uiso       1.00
      C135          C  0.5251940  0.0000000  0.4999970    0.00000       Uiso       1.00
      C136          C  0.0251940  0.5000010  0.4999970    0.00000       Uiso       1.00
      C137          C  0.4875250  0.0324950  0.4999970    0.00000       Uiso       1.00
      C138          C  0.9875250  0.5324960  0.4999970    0.00000       Uiso       1.00
      C139          C  0.5124750  0.9675060  0.4999970    0.00000       Uiso       1.00
      C140          C  0.0124750  0.4675050  0.4999970    0.00000       Uiso       1.00
      C141          C  0.5124750  0.0324950  0.4999970    0.00000       Uiso       1.00
      C142          C  0.0124750  0.5324960  0.4999970    0.00000       Uiso       1.00
      C143          C  0.4875250  0.9675060  0.4999970    0.00000       Uiso       1.00
      C144          C  0.9875250  0.4675050  0.4999970    0.00000       Uiso       1.00
      H145          H  0.4775790  0.0589860  0.4999970    0.00000       Uiso       1.00
      H146          H  0.9775800  0.5589870  0.4999970    0.00000       Uiso       1.00
      H147          H  0.5224210  0.9410150  0.4999970    0.00000       Uiso       1.00
      H148          H  0.0224210  0.4410140  0.4999970    0.00000       Uiso       1.00
      H149          H  0.5224210  0.0589860  0.4999970    0.00000       Uiso       1.00
      H150          H  0.0224210  0.5589870  0.4999970    0.00000       Uiso       1.00
      H151          H  0.4775790  0.9410150  0.4999970    0.00000       Uiso       1.00
      H152          H  0.9775800  0.4410140  0.4999970    0.00000       Uiso       1.00
      C153          C  0.7813711  0.6681770  0.4999970    0.00000       Uiso       1.00
      C154          C  0.2813710  0.1681770  0.4999970    0.00000       Uiso       1.00
      C155          C  0.2186290  0.3318240  0.4999970    0.00000       Uiso       1.00
      C156          C  0.7186290  0.8318250  0.4999970    0.00000       Uiso       1.00
      C157          C  0.2186290  0.6681770  0.4999970    0.00000       Uiso       1.00
      C158          C  0.7186290  0.1681770  0.4999970    0.00000       Uiso       1.00
      C159          C  0.7813711  0.3318240  0.4999970    0.00000       Uiso       1.00
      C160          C  0.2813710  0.8318250  0.4999970    0.00000       Uiso       1.00
      C161          C  0.7562970  0.6682560  0.4999970    0.00000       Uiso       1.00
      C162          C  0.2562970  0.1682550  0.4999970    0.00000       Uiso       1.00
      C163          C  0.2437030  0.3317450  0.4999970    0.00000       Uiso       1.00
      C164          C  0.7437030  0.8317460  0.4999970    0.00000       Uiso       1.00
      C165          C  0.2437030  0.6682560  0.4999970    0.00000       Uiso       1.00
      C166          C  0.7437030  0.1682550  0.4999970    0.00000       Uiso       1.00
      C167          C  0.7562970  0.3317450  0.4999970    0.00000       Uiso       1.00
      C168          C  0.2562970  0.8317460  0.4999970    0.00000       Uiso       1.00
      C169          C  0.7816360  0.7338200  0.4999970    0.00000       Uiso       1.00
      C170          C  0.2816360  0.2338190  0.4999970    0.00000       Uiso       1.00
      C171          C  0.2183640  0.2661810  0.4999970    0.00000       Uiso       1.00
      C172          C  0.7183640  0.7661820  0.4999970    0.00000       Uiso       1.00
      C173          C  0.2183640  0.7338200  0.4999970    0.00000       Uiso       1.00
      C174          C  0.7183640  0.2338190  0.4999970    0.00000       Uiso       1.00
      C175          C  0.7816360  0.2661810  0.4999970    0.00000       Uiso       1.00
      C176          C  0.2816360  0.7661820  0.4999970    0.00000       Uiso       1.00
      H177          H  0.7461569  0.6419330  0.4999970    0.00000       Uiso       1.00
      H178          H  0.2461570  0.1419320  0.4999970    0.00000       Uiso       1.00
      H179          H  0.2538430  0.3580680  0.4999970    0.00000       Uiso       1.00
      H180          H  0.7538430  0.8580690  0.4999970    0.00000       Uiso       1.00
      H181          H  0.2538430  0.6419330  0.4999970    0.00000       Uiso       1.00
      H182          H  0.7538430  0.1419320  0.4999970    0.00000       Uiso       1.00
      H183          H  0.7461569  0.3580680  0.4999970    0.00000       Uiso       1.00
      H184          H  0.2461570  0.8580690  0.4999970    0.00000       Uiso       1.00
      C185          C  0.7938620  0.7009180  0.4999970    0.00000       Uiso       1.00
      C186          C  0.2938610  0.2009180  0.4999970    0.00000       Uiso       1.00
      C187          C  0.2061390  0.2990830  0.4999970    0.00000       Uiso       1.00
      C188          C  0.7061390  0.7990830  0.4999970    0.00000       Uiso       1.00
      C189          C  0.2061390  0.7009180  0.4999970    0.00000       Uiso       1.00
      C190          C  0.7061390  0.2009180  0.4999970    0.00000       Uiso       1.00
      C191          C  0.7938620  0.2990830  0.4999970    0.00000       Uiso       1.00
      C192          C  0.2938610  0.7990830  0.4999970    0.00000       Uiso       1.00
      C193          C  0.7434890  0.7006500  0.4999970    0.00000       Uiso       1.00
      C194          C  0.2434890  0.2006490  0.4999970    0.00000       Uiso       1.00
      C195          C  0.2565120  0.2993510  0.4999970    0.00000       Uiso       1.00
      C196          C  0.7565120  0.7993520  0.4999970    0.00000       Uiso       1.00
      C197          C  0.2565120  0.7006500  0.4999970    0.00000       Uiso       1.00
      C198          C  0.7565120  0.2006490  0.4999970    0.00000       Uiso       1.00
      C199          C  0.7434890  0.2993510  0.4999970    0.00000       Uiso       1.00
      C200          C  0.2434890  0.7993520  0.4999970    0.00000       Uiso       1.00
      H201          H  0.8140690  0.7009830  0.4999970    0.00000       Uiso       1.00
      H202          H  0.3140690  0.2009830  0.4999970    0.00000       Uiso       1.00
      H203          H  0.1859310  0.2990180  0.4999970    0.00000       Uiso       1.00
      H204          H  0.6859310  0.7990190  0.4999970    0.00000       Uiso       1.00
      H205          H  0.1859310  0.7009830  0.4999970    0.00000       Uiso       1.00
      H206          H  0.6859310  0.2009830  0.4999970    0.00000       Uiso       1.00
      H207          H  0.8140690  0.2990180  0.4999970    0.00000       Uiso       1.00
      H208          H  0.3140690  0.7990190  0.4999970    0.00000       Uiso       1.00
      C209          C  0.7563440  0.7334540  0.4999970    0.00000       Uiso       1.00
      C210          C  0.2563440  0.2334540  0.4999970    0.00000       Uiso       1.00
      C211          C  0.2436560  0.2665470  0.4999970    0.00000       Uiso       1.00
      C212          C  0.7436560  0.7665480  0.4999970    0.00000       Uiso       1.00
      C213          C  0.2436560  0.7334540  0.4999970    0.00000       Uiso       1.00
      C214          C  0.7436560  0.2334540  0.4999970    0.00000       Uiso       1.00
      C215          C  0.7563440  0.2665470  0.4999970    0.00000       Uiso       1.00
      C216          C  0.2563440  0.7665480  0.4999970    0.00000       Uiso       1.00
      C217          C  0.7058140  0.7333350  0.4999970    0.00000       Uiso       1.00
      C218          C  0.2058140  0.2333340  0.4999970    0.00000       Uiso       1.00
      C219          C  0.2941870  0.2666660  0.4999970    0.00000       Uiso       1.00
      C220          C  0.7941870  0.7666670  0.4999970    0.00000       Uiso       1.00
      C221          C  0.2941870  0.7333350  0.4999970    0.00000       Uiso       1.00
      C222          C  0.7941870  0.2333340  0.4999970    0.00000       Uiso       1.00
      C223          C  0.7058140  0.2666660  0.4999970    0.00000       Uiso       1.00
      C224          C  0.2058140  0.7666670  0.4999970    0.00000       Uiso       1.00
      C225          C  0.7816760  0.7992980  0.4999970    0.00000       Uiso       1.00
      C226          C  0.2816760  0.2992970  0.4999970    0.00000       Uiso       1.00
      C227          C  0.2183240  0.2007030  0.4999970    0.00000       Uiso       1.00
      C228          C  0.7183240  0.7007040  0.4999970    0.00000       Uiso       1.00
      C229          C  0.2183240  0.7992980  0.4999970    0.00000       Uiso       1.00
      C230          C  0.7183240  0.2992970  0.4999970    0.00000       Uiso       1.00
      C231          C  0.7816760  0.2007030  0.4999970    0.00000       Uiso       1.00
      C232          C  0.2816760  0.7007040  0.4999970    0.00000       Uiso       1.00
      H233          H  0.6856060  0.7332910  0.4999970    0.00000       Uiso       1.00
      H234          H  0.7918050  0.8256310  0.4999970    0.00000       Uiso       1.00
      H235          H  0.1856060  0.2332900  0.4999970    0.00000       Uiso       1.00
      H236          H  0.2918040  0.3256310  0.4999970    0.00000       Uiso       1.00
      H237          H  0.3143940  0.2667110  0.4999970    0.00000       Uiso       1.00
      H238          H  0.2081960  0.1743700  0.4999970    0.00000       Uiso       1.00
      H239          H  0.8143940  0.7667110  0.4999970    0.00000       Uiso       1.00
      H240          H  0.7081960  0.6743710  0.4999970    0.00000       Uiso       1.00
      H241          H  0.3143940  0.7332910  0.4999970    0.00000       Uiso       1.00
      H242          H  0.2081960  0.8256310  0.4999970    0.00000       Uiso       1.00
      H243          H  0.8143940  0.2332900  0.4999970    0.00000       Uiso       1.00
      H244          H  0.7081960  0.3256310  0.4999970    0.00000       Uiso       1.00
      H245          H  0.6856060  0.2667110  0.4999970    0.00000       Uiso       1.00
      H246          H  0.7918050  0.1743700  0.4999970    0.00000       Uiso       1.00
      H247          H  0.1856060  0.7667110  0.4999970    0.00000       Uiso       1.00
      H248          H  0.2918040  0.6743710  0.4999970    0.00000       Uiso       1.00
