data_MC-COF-TP-E12E21
_audit_creation_date              0000-00-00
_audit_creation_method            'LanYouShi'
_symmetry_space_group_name_H-M    'P1'
_cell_length_a                    30.1826000
_cell_length_b                    52.2779007
_cell_length_c                    3.6833999
_cell_angle_alpha                 90.9446030
_cell_angle_beta                  111.6256027
_cell_angle_gamma                 90.0121002
loop_
_atom_site_label
_atom_site_type_symbol
_atom_site_fract_x
_atom_site_fract_y
_atom_site_fract_z
_atom_site_U_iso_or_equiv
_atom_site_adp_type
_atom_site_occupancy
        C1          C  0.5237390  0.8095070  0.4774350    0.00000       Uiso       1.00
        C2          C  0.5485430  0.8332710  0.4933820    0.00000       Uiso       1.00
        C3          C  0.5966060  0.8322460  0.5091690    0.00000       Uiso       1.00
        C4          C  0.6186110  0.8089450  0.4974370    0.00000       Uiso       1.00
        C5          C  0.5942609  0.7861710  0.4705910    0.00000       Uiso       1.00
        C6          C  0.5475790  0.7861420  0.4595040    0.00000       Uiso       1.00
        C7          C  0.0230790  0.3092390  0.4779050    0.00000       Uiso       1.00
        C8          C  0.0479570  0.3330090  0.4963480    0.00000       Uiso       1.00
        C9          C  0.0960490  0.3320060  0.5132600    0.00000       Uiso       1.00
       C10          C  0.1180160  0.3087340  0.5001320    0.00000       Uiso       1.00
       C11          C  0.0936670  0.2859260  0.4707700    0.00000       Uiso       1.00
       C12          C  0.0469150  0.2858850  0.4586040    0.00000       Uiso       1.00
       C13          C  0.5224670  0.1908210  0.4654200    0.00000       Uiso       1.00
       C14          C  0.5471210  0.1670780  0.4792320    0.00000       Uiso       1.00
       C15          C  0.5951260  0.1681050  0.4939100    0.00000       Uiso       1.00
       C16          C  0.6173120  0.1913670  0.4855940    0.00000       Uiso       1.00
       C17          C  0.5932360  0.2141390  0.4621720    0.00000       Uiso       1.00
       C18          C  0.5465150  0.2141550  0.4507980    0.00000       Uiso       1.00
       C19          C  0.0236220  0.6905590  0.4667960    0.00000       Uiso       1.00
       C20          C  0.0483770  0.6668250  0.4821930    0.00000       Uiso       1.00
       C21          C  0.0964260  0.6678790  0.4979200    0.00000       Uiso       1.00
       C22          C  0.1185620  0.6911520  0.4888890    0.00000       Uiso       1.00
       C23          C  0.0943580  0.7138990  0.4636000    0.00000       Uiso       1.00
       C24          C  0.0475930  0.7138980  0.4511470    0.00000       Uiso       1.00
       O25          O  0.6215850  0.7660340  0.4571200    0.00000       Uiso       1.00
       O26          O  0.1211000  0.2658340  0.4564450    0.00000       Uiso       1.00
       O27          O  0.6208830  0.2342210  0.4524140    0.00000       Uiso       1.00
       O28          O  0.1219330  0.7339930  0.4531750    0.00000       Uiso       1.00
       B29          B  0.6661490  0.7772260  0.4781330    0.00000       Uiso       1.00
       B30          B  0.1656670  0.2771600  0.4798750    0.00000       Uiso       1.00
       B31          B  0.6652900  0.2229250  0.4724180    0.00000       Uiso       1.00
       B32          B  0.1664470  0.7227440  0.4749850    0.00000       Uiso       1.00
       O33          O  0.6630211  0.8046740  0.5045170    0.00000       Uiso       1.00
       O34          O  0.1624780  0.3045830  0.5082660    0.00000       Uiso       1.00
       O35          O  0.6617860  0.1955320  0.4939290    0.00000       Uiso       1.00
       O36          O  0.1630700  0.6953530  0.4980370    0.00000       Uiso       1.00
       C37          C  0.4763120  0.8096600  0.4764050    0.00000       Uiso       1.00
       C38          C  0.4519740  0.8335440  0.4598190    0.00000       Uiso       1.00
       C39          C  0.4519830  0.7864980  0.4941830    0.00000       Uiso       1.00
       C40          C  0.4052680  0.7867980  0.4823700    0.00000       Uiso       1.00
       C41          C  0.3814190  0.8096741  0.4561710    0.00000       Uiso       1.00
       C42          C  0.4039520  0.8328000  0.4454640    0.00000       Uiso       1.00
       C43          C  0.9756160  0.3094110  0.4760660    0.00000       Uiso       1.00
       C44          C  0.9513860  0.3333140  0.4615750    0.00000       Uiso       1.00
       C45          C  0.9511530  0.2862470  0.4912560    0.00000       Uiso       1.00
       C46          C  0.9044500  0.2865740  0.4799100    0.00000       Uiso       1.00
       C47          C  0.8807590  0.3094780  0.4563530    0.00000       Uiso       1.00
       C48          C  0.9033850  0.3326000  0.4475800    0.00000       Uiso       1.00
       C49          C  0.4750120  0.1906450  0.4638120    0.00000       Uiso       1.00
       C50          C  0.4505680  0.1667150  0.4449850    0.00000       Uiso       1.00
       C51          C  0.4507650  0.2138310  0.4835510    0.00000       Uiso       1.00
       C52          C  0.4040430  0.2134860  0.4717310    0.00000       Uiso       1.00
       C53          C  0.3800850  0.1905460  0.4425630    0.00000       Uiso       1.00
       C54          C  0.4024920  0.1674100  0.4291250    0.00000       Uiso       1.00
       C55          C  0.9761370  0.6903710  0.4645720    0.00000       Uiso       1.00
       C56          C  0.9517650  0.6664261  0.4462090    0.00000       Uiso       1.00
       C57          C  0.9518071  0.7135520  0.4835300    0.00000       Uiso       1.00
       C58          C  0.9050700  0.7131870  0.4714570    0.00000       Uiso       1.00
       C59          C  0.8811989  0.6902250  0.4422580    0.00000       Uiso       1.00
       C60          C  0.9036490  0.6670990  0.4292970    0.00000       Uiso       1.00
       O61          O  0.3368700  0.8056890  0.4478770    0.00000       Uiso       1.00
       O62          O  0.8362160  0.3055370  0.4483570    0.00000       Uiso       1.00
       O63          O  0.3355590  0.1944740  0.4348410    0.00000       Uiso       1.00
       O64          O  0.8366800  0.6941080  0.4344010    0.00000       Uiso       1.00
       B65          B  0.3331320  0.7783220  0.4722700    0.00000       Uiso       1.00
       B66          B  0.8323030  0.2781650  0.4701310    0.00000       Uiso       1.00
       B67          B  0.3319570  0.2218800  0.4632280    0.00000       Uiso       1.00
       B68          B  0.8328870  0.7215010  0.4628310    0.00000       Uiso       1.00
       O69          O  0.3774690  0.7668580  0.4941800    0.00000       Uiso       1.00
       O70          O  0.8765300  0.2666490  0.4901270    0.00000       Uiso       1.00
       O71          O  0.3763280  0.2334250  0.4862920    0.00000       Uiso       1.00
       O72          O  0.8772310  0.7330870  0.4858030    0.00000       Uiso       1.00
       C73          C  0.5248600  0.8570390  0.4887740    0.00000       Uiso       1.00
       C74          C  0.4760010  0.8571620  0.4611440    0.00000       Uiso       1.00
       C75          C  0.4529020  0.8813140  0.4385430    0.00000       Uiso       1.00
       C76          C  0.4771120  0.9042581  0.4521000    0.00000       Uiso       1.00
       C77          C  0.5243030  0.9041440  0.4872940    0.00000       Uiso       1.00
       C78          C  0.5482610  0.8810939  0.5063940    0.00000       Uiso       1.00
       C79          C  0.0243600  0.3567800  0.4931310    0.00000       Uiso       1.00
       C80          C  0.0240050  0.4038670  0.4946070    0.00000       Uiso       1.00
       C81          C  0.0478850  0.3808150  0.5129100    0.00000       Uiso       1.00
       C82          C  0.5234290  0.1433020  0.4744930    0.00000       Uiso       1.00
       C83          C  0.4745640  0.1430950  0.4465210    0.00000       Uiso       1.00
       C84          C  0.4515130  0.1188760  0.4251150    0.00000       Uiso       1.00
       C85          C  0.4758010  0.0959700  0.4404210    0.00000       Uiso       1.00
       C86          C  0.5230030  0.0962150  0.4760020    0.00000       Uiso       1.00
       C87          C  0.5468930  0.1193060  0.4935600    0.00000       Uiso       1.00
       C88          C  0.0247580  0.6430340  0.4781650    0.00000       Uiso       1.00
       C89          C  0.0244590  0.5959320  0.4822050    0.00000       Uiso       1.00
       C90          C  0.0482920  0.6190390  0.4987950    0.00000       Uiso       1.00
       C91          C  0.9754840  0.3569330  0.4647380    0.00000       Uiso       1.00
       C92          C  0.9524600  0.3811040  0.4430590    0.00000       Uiso       1.00
       C93          C  0.9767790  0.4040390  0.4583070    0.00000       Uiso       1.00
       C94          C  0.9758660  0.6428180  0.4493690    0.00000       Uiso       1.00
       C95          C  0.9528720  0.6185980  0.4288870    0.00000       Uiso       1.00
       C96          C  0.9772350  0.5957040  0.4459390    0.00000       Uiso       1.00
       O97          O  0.5408950  0.9282070  0.4963750    0.00000       Uiso       1.00
       O98          O  0.0407850  0.4278870  0.5053180    0.00000       Uiso       1.00
       O99          O  0.5397810  0.0722150  0.4876040    0.00000       Uiso       1.00
      O100          O  0.0412460  0.5719120  0.4954020    0.00000       Uiso       1.00
      B101          B  0.5009440  0.9443620  0.4640430    0.00000       Uiso       1.00
      B102          B  0.0009050  0.4440930  0.4726740    0.00000       Uiso       1.00
      B103          B  0.4999470  0.0559400  0.4568370    0.00000       Uiso       1.00
      B104          B  0.0013790  0.5556620  0.4648880    0.00000       Uiso       1.00
      O105          O  0.4608030  0.9284110  0.4364370    0.00000       Uiso       1.00
      O106          O  0.9606030  0.4282210  0.4434590    0.00000       Uiso       1.00
      O107          O  0.4596530  0.0717550  0.4271250    0.00000       Uiso       1.00
      O108          O  0.9610790  0.5715090  0.4336980    0.00000       Uiso       1.00
      H109          H  0.6170840  0.8479550  0.5260140    0.00000       Uiso       1.00
      H110          H  0.5323240  0.7685640  0.4347870    0.00000       Uiso       1.00
      H111          H  0.4668890  0.7688910  0.5190250    0.00000       Uiso       1.00
      H112          H  0.3838660  0.8486060  0.4299330    0.00000       Uiso       1.00
      H113          H  0.4184090  0.8832660  0.4123570    0.00000       Uiso       1.00
      H114          H  0.5827620  0.8828960  0.5317950    0.00000       Uiso       1.00
      H115          H  0.1166010  0.3477080  0.5319760    0.00000       Uiso       1.00
      H116          H  0.0315900  0.2683140  0.4321910    0.00000       Uiso       1.00
      H117          H  0.0824210  0.3826180  0.5394190    0.00000       Uiso       1.00
      H118          H  0.6154660  0.1524240  0.5078000    0.00000       Uiso       1.00
      H119          H  0.5313800  0.2316910  0.4284420    0.00000       Uiso       1.00
      H120          H  0.4657470  0.2314900  0.5100140    0.00000       Uiso       1.00
      H121          H  0.3822850  0.1515700  0.4107970    0.00000       Uiso       1.00
      H122          H  0.4170320  0.1168530  0.3991340    0.00000       Uiso       1.00
      H123          H  0.5814160  0.1175590  0.5198280    0.00000       Uiso       1.00
      H124          H  0.1168210  0.6522050  0.5130890    0.00000       Uiso       1.00
      H125          H  0.0323740  0.7314180  0.4273710    0.00000       Uiso       1.00
      H126          H  0.0828390  0.6173040  0.5255060    0.00000       Uiso       1.00
      H127          H  0.9659590  0.2686210  0.5140250    0.00000       Uiso       1.00
      H128          H  0.8833941  0.3484210  0.4339540    0.00000       Uiso       1.00
      H129          H  0.9179550  0.3830770  0.4162890    0.00000       Uiso       1.00
      H130          H  0.9667650  0.7312180  0.5098580    0.00000       Uiso       1.00
      H131          H  0.8834450  0.6512520  0.4106760    0.00000       Uiso       1.00
      H132          H  0.9183780  0.6165570  0.4025020    0.00000       Uiso       1.00
      C133          C  0.7902539  0.7355620  0.4677890    0.00000       Uiso       1.00
      C134          C  0.2893930  0.2359860  0.4680460    0.00000       Uiso       1.00
      C135          C  0.7895670  0.2640670  0.4714780    0.00000       Uiso       1.00
      C136          C  0.2904870  0.7641490  0.4740690    0.00000       Uiso       1.00
      C137          C  0.7480360  0.7226050  0.4384780    0.00000       Uiso       1.00
      C138          C  0.2474580  0.2226420  0.4367100    0.00000       Uiso       1.00
      C139          C  0.7478110  0.2773820  0.4440060    0.00000       Uiso       1.00
      C140          C  0.2485070  0.7773520  0.4432400    0.00000       Uiso       1.00
      C141          C  0.7506530  0.7760360  0.5037480    0.00000       Uiso       1.00
      C142          C  0.2501020  0.2763040  0.5067720    0.00000       Uiso       1.00
      C143          C  0.7497120  0.2238000  0.4987960    0.00000       Uiso       1.00
      C144          C  0.2510460  0.7238090  0.5053540    0.00000       Uiso       1.00
      H145          H  0.2459470  0.2031120  0.4112940    0.00000       Uiso       1.00
      H146          H  0.7465680  0.2968930  0.4240130    0.00000       Uiso       1.00
      H147          H  0.2470390  0.7968360  0.4205910    0.00000       Uiso       1.00
      C148          C  0.7910400  0.7625470  0.5011710    0.00000       Uiso       1.00
      C149          C  0.2904280  0.2629150  0.5038110    0.00000       Uiso       1.00
      C150          C  0.7902280  0.2371770  0.4995940    0.00000       Uiso       1.00
      C151          C  0.2914670  0.7372790  0.5060240    0.00000       Uiso       1.00
      C152          C  0.7080350  0.7359450  0.4393230    0.00000       Uiso       1.00
      C153          C  0.2071180  0.2360360  0.4396750    0.00000       Uiso       1.00
      C154          C  0.7072880  0.2640000  0.4432840    0.00000       Uiso       1.00
      C155          C  0.2080770  0.7638780  0.4426550    0.00000       Uiso       1.00
      H156          H  0.8209570  0.7725829  0.5222150    0.00000       Uiso       1.00
      H157          H  0.3204460  0.2729940  0.5267830    0.00000       Uiso       1.00
      H158          H  0.8200930  0.2271220  0.5195980    0.00000       Uiso       1.00
      H159          H  0.3215320  0.7273011  0.5290300    0.00000       Uiso       1.00
      C160          C  0.7084880  0.7628670  0.4733900    0.00000       Uiso       1.00
      C161          C  0.2081530  0.2629660  0.4752830    0.00000       Uiso       1.00
      C162          C  0.7079530  0.2371100  0.4713610    0.00000       Uiso       1.00
      C163          C  0.2090530  0.7370040  0.4742160    0.00000       Uiso       1.00
      H164          H  0.1770800  0.2259850  0.4166410    0.00000       Uiso       1.00
      H165          H  0.6773950  0.2740370  0.4230380    0.00000       Uiso       1.00
      H166          H  0.1779940  0.7738180  0.4197580    0.00000       Uiso       1.00
      H167          H  0.7522530  0.7955431  0.5276890    0.00000       Uiso       1.00
      H168          H  0.2516300  0.2958440  0.5320270    0.00000       Uiso       1.00
      H169          H  0.7509700  0.2042870  0.5185270    0.00000       Uiso       1.00
      H170          H  0.2525560  0.7043170  0.5280560    0.00000       Uiso       1.00
      C171          C  0.5003930  0.0274820  0.4565240    0.00000       Uiso       1.00
      C172          C  0.0015830  0.5272010  0.4656870    0.00000       Uiso       1.00
      C173          C  0.5009400  0.9728180  0.4599520    0.00000       Uiso       1.00
      C174          C  0.0012790  0.4725400  0.4693760    0.00000       Uiso       1.00
      C175          C  0.5415580  0.0136360  0.4828850    0.00000       Uiso       1.00
      C176          C  0.0425820  0.5131470  0.4936200    0.00000       Uiso       1.00
      C177          C  0.5418130  0.9869420  0.4844250    0.00000       Uiso       1.00
      C178          C  0.0424330  0.4864520  0.4952750    0.00000       Uiso       1.00
      C179          C  0.4594970  0.9865230  0.4327000    0.00000       Uiso       1.00
      C180          C  0.9600070  0.4864410  0.4409700    0.00000       Uiso       1.00
      C181          C  0.4592150  0.0135160  0.4309700    0.00000       Uiso       1.00
      C182          C  0.9601610  0.5134310  0.4390570    0.00000       Uiso       1.00
      N183          N  0.5838770  0.0231850  0.5094230    0.00000       Uiso       1.00
      N184          N  0.0850650  0.5225130  0.5214020    0.00000       Uiso       1.00
      N185          N  0.5842860  0.9776460  0.5119640    0.00000       Uiso       1.00
      N186          N  0.0848200  0.4769700  0.5239900    0.00000       Uiso       1.00
      S187          S  0.6247130  0.0005420  0.5380990    0.00000       Uiso       1.00
      S188          S  0.1256160  0.4996840  0.5514030    0.00000       Uiso       1.00
      N189          N  0.7401390  0.6972850  0.4063180    0.00000       Uiso       1.00
      S190          S  0.6848570  0.6889790  0.3733590    0.00000       Uiso       1.00
      N191          N  0.6718190  0.7200490  0.4056700    0.00000       Uiso       1.00
      H192          H  0.4288100  0.0228650  0.4137560    0.00000       Uiso       1.00
      H193          H  0.9298630  0.5229670  0.4205320    0.00000       Uiso       1.00
      H194          H  0.4293050  0.9769419  0.4167110    0.00000       Uiso       1.00
      H195          H  0.9295930  0.4770580  0.4239260    0.00000       Uiso       1.00
