data_MC-COF-TP-E1E3E7
_audit_creation_date              0000-00-00
_audit_creation_method            'LanYouShi'
_symmetry_space_group_name_H-M    'P1'
_cell_length_a                    33.8330002
_cell_length_b                    3.5560999
_cell_length_c                    31.4113007
_cell_angle_alpha                 90.0000000
_cell_angle_beta                  65.5175018
_cell_angle_gamma                 90.0000000
loop_
_atom_site_label
_atom_site_type_symbol
_atom_site_fract_x
_atom_site_fract_y
_atom_site_fract_z
_atom_site_U_iso_or_equiv
_atom_site_adp_type
_atom_site_occupancy
        C1          C  0.3098150  0.4573360  0.3279680    0.00000       Uiso       1.00
        C2          C  0.3115870  0.4385010  0.3729290    0.00000       Uiso       1.00
        C3          C  0.2717270  0.3921480  0.4136140    0.00000       Uiso       1.00
        C4          C  0.2318210  0.3837660  0.4103590    0.00000       Uiso       1.00
        C5          C  0.2300490  0.4113980  0.3672720    0.00000       Uiso       1.00
        C6          C  0.2680940  0.4467940  0.3265330    0.00000       Uiso       1.00
        C7          C  0.6901850  0.4573360  0.6720320    0.00000       Uiso       1.00
        C8          C  0.6884130  0.4385010  0.6270700    0.00000       Uiso       1.00
        C9          C  0.7282730  0.3921480  0.5863850    0.00000       Uiso       1.00
       C10          C  0.7681791  0.3837660  0.5896410    0.00000       Uiso       1.00
       C11          C  0.7699509  0.4113980  0.6327280    0.00000       Uiso       1.00
       C12          C  0.7319060  0.4467940  0.6734660    0.00000       Uiso       1.00
       O13          O  0.1887130  0.3966710  0.3716190    0.00000       Uiso       1.00
       O14          O  0.8112870  0.3966710  0.6283800    0.00000       Uiso       1.00
       B15          B  0.1629940  0.3593610  0.4212540    0.00000       Uiso       1.00
       B16          B  0.8370051  0.3593610  0.5787460    0.00000       Uiso       1.00
       O17          O  0.1915980  0.3504120  0.4448130    0.00000       Uiso       1.00
       O18          O  0.8084021  0.3504120  0.5551860    0.00000       Uiso       1.00
       C19          C  0.3490980  0.4851280  0.2863060    0.00000       Uiso       1.00
       C20          C  0.6509020  0.4851280  0.7136930    0.00000       Uiso       1.00
       C21          C  0.3903470  0.5021570  0.2894130    0.00000       Uiso       1.00
       C22          C  0.6096530  0.5021570  0.7105860    0.00000       Uiso       1.00
       C23          C  0.3488390  0.4937500  0.2408790    0.00000       Uiso       1.00
       C24          C  0.6511611  0.4937500  0.7591200    0.00000       Uiso       1.00
       C25          C  0.3873230  0.5189650  0.2004650    0.00000       Uiso       1.00
       C26          C  0.6126769  0.5189650  0.7995340    0.00000       Uiso       1.00
       C27          C  0.4269180  0.5352890  0.2034540    0.00000       Uiso       1.00
       C28          C  0.5730820  0.5352890  0.7965450    0.00000       Uiso       1.00
       C29          C  0.4288860  0.5278600  0.2469230    0.00000       Uiso       1.00
       C30          C  0.5711140  0.5278600  0.7530760    0.00000       Uiso       1.00
       H31          H  0.2699750  0.3617130  0.4465160    0.00000       Uiso       1.00
       H32          H  0.7300240  0.3617130  0.5534830    0.00000       Uiso       1.00
       H33          H  0.2635920  0.4635430  0.2965600    0.00000       Uiso       1.00
       H34          H  0.7364081  0.4635430  0.7034390    0.00000       Uiso       1.00
       H35          H  0.3214310  0.4809650  0.2352350    0.00000       Uiso       1.00
       H36          H  0.6785690  0.4809650  0.7647640    0.00000       Uiso       1.00
       H37          H  0.4593090  0.5417060  0.2456410    0.00000       Uiso       1.00
       H38          H  0.5406910  0.5417060  0.7543580    0.00000       Uiso       1.00
       H39          H  0.4617440  0.5316980  0.3113900    0.00000       Uiso       1.00
       H40          H  0.5382560  0.5316980  0.6886100    0.00000       Uiso       1.00
       H41          H  0.3293120  0.4578680  0.4515230    0.00000       Uiso       1.00
       H42          H  0.6706880  0.4578680  0.5484760    0.00000       Uiso       1.00
       C43          C  0.1147700  0.3399890  0.4444610    0.00000       Uiso       1.00
       C44          C  0.8852299  0.3399890  0.5555380    0.00000       Uiso       1.00
       C45          C  0.0903110  0.3309180  0.4173080    0.00000       Uiso       1.00
       C46          C  0.9096891  0.3309180  0.5826910    0.00000       Uiso       1.00
       C47          C  0.0444580  0.3268120  0.4389000    0.00000       Uiso       1.00
       C48          C  0.9555410  0.3268120  0.5611000    0.00000       Uiso       1.00
       C49          C  0.0933420  0.3351190  0.4937990    0.00000       Uiso       1.00
       C50          C  0.9066580  0.3351190  0.5062000    0.00000       Uiso       1.00
       C51          C  0.0475350  0.3281980  0.5165770    0.00000       Uiso       1.00
       C52          C  0.9524650  0.3281980  0.4834220    0.00000       Uiso       1.00
       C53          C  0.0232330  0.3267640  0.4887480    0.00000       Uiso       1.00
       C54          C  0.9767670  0.3267640  0.5112510    0.00000       Uiso       1.00
       C55          C  0.0259610  0.3260480  0.5661610    0.00000       Uiso       1.00
       C56          C  0.9740390  0.3260480  0.4338380    0.00000       Uiso       1.00
       H57          H  0.1075800  0.3268290  0.3775000    0.00000       Uiso       1.00
       H58          H  0.1130450  0.3367570  0.5157300    0.00000       Uiso       1.00
       H59          H  0.0456400  0.3252020  0.5881180    0.00000       Uiso       1.00
       H60          H  0.8924200  0.3268290  0.6224990    0.00000       Uiso       1.00
       H61          H  0.8869551  0.3367570  0.4842690    0.00000       Uiso       1.00
       H62          H  0.9543591  0.3252020  0.4118810    0.00000       Uiso       1.00
       O63          O  0.4599380  0.5564500  0.1605670    0.00000       Uiso       1.00
       O64          O  0.5400620  0.5564500  0.8394320    0.00000       Uiso       1.00
       B65          B  0.4389130  0.5528670  0.1289580    0.00000       Uiso       1.00
       B66          B  0.5610870  0.5528670  0.8710410    0.00000       Uiso       1.00
       O67          O  0.3925770  0.5294290  0.1554800    0.00000       Uiso       1.00
       O68          O  0.6074220  0.5294290  0.8445190    0.00000       Uiso       1.00
       C69          C  0.3524740  0.4657340  0.3760690    0.00000       Uiso       1.00
       C70          C  0.3920070  0.4941880  0.3341880    0.00000       Uiso       1.00
       C71          C  0.4322800  0.5136390  0.3388570    0.00000       Uiso       1.00
       C72          C  0.4334460  0.5115870  0.3827400    0.00000       Uiso       1.00
       C73          C  0.3954280  0.4919640  0.4229610    0.00000       Uiso       1.00
       C74          C  0.3554000  0.4696830  0.4202360    0.00000       Uiso       1.00
       C75          C  0.6475260  0.4657340  0.6239299    0.00000       Uiso       1.00
       C76          C  0.6079930  0.4941880  0.6658110    0.00000       Uiso       1.00
       C77          C  0.5677200  0.5136390  0.6611420    0.00000       Uiso       1.00
       C78          C  0.5665540  0.5115870  0.6172600    0.00000       Uiso       1.00
       C79          C  0.6045720  0.4919640  0.5770380    0.00000       Uiso       1.00
       C80          C  0.6446000  0.4696830  0.5797630    0.00000       Uiso       1.00
       O81          O  0.4036800  0.4968840  0.4614970    0.00000       Uiso       1.00
       O82          O  0.5963200  0.4968840  0.5385020    0.00000       Uiso       1.00
       B83          B  0.4503440  0.5177750  0.4435110    0.00000       Uiso       1.00
       B84          B  0.5496550  0.5177750  0.5564880    0.00000       Uiso       1.00
       O85          O  0.4683400  0.5266020  0.3931180    0.00000       Uiso       1.00
       O86          O  0.5316600  0.5266020  0.6068810    0.00000       Uiso       1.00
       C87          C  0.0198360  0.3249550  0.4116880    0.00000       Uiso       1.00
       H88          H  0.0370560  0.3225770  0.3718740    0.00000       Uiso       1.00
       C89          C  0.9801630  0.3249550  0.5883120    0.00000       Uiso       1.00
       H90          H  0.9629440  0.3225770  0.6281250    0.00000       Uiso       1.00
       C91          C  0.4757620  0.5249210  0.4724180    0.00000       Uiso       1.00
       C92          C  0.4543760  0.5260960  0.5216940    0.00000       Uiso       1.00
       C93          C  0.5242380  0.5249210  0.5275810    0.00000       Uiso       1.00
       C94          C  0.5456240  0.5260960  0.4783050    0.00000       Uiso       1.00
       H95          H  0.4211940  0.5253730  0.5381370    0.00000       Uiso       1.00
       H96          H  0.5788060  0.5253730  0.4618620    0.00000       Uiso       1.00
       C97          C  0.5215890  0.5276880  0.4509460    0.00000       Uiso       1.00
       C98          C  0.4784100  0.5276880  0.5490530    0.00000       Uiso       1.00
       H99          H  0.5379180  0.5287870  0.4152730    0.00000       Uiso       1.00
      H100          H  0.4620820  0.5287870  0.5847260    0.00000       Uiso       1.00
      C101          C  0.5386710  0.5667990  0.9227860    0.00000       Uiso       1.00
      C102          C  0.4613290  0.5667990  0.0772130    0.00000       Uiso       1.00
      S103          S  0.5676090  0.5724780  0.9576340    0.00000       Uiso       1.00
      S104          S  0.4323910  0.5724780  0.0423650    0.00000       Uiso       1.00
      C105          C  0.5177920  0.5738020  0.0051490    0.00000       Uiso       1.00
      C106          C  0.5064680  0.5711980  0.0527260    0.00000       Uiso       1.00
      C107          C  0.4822080  0.5738020  0.9948500    0.00000       Uiso       1.00
      C108          C  0.4935320  0.5711980  0.9472740    0.00000       Uiso       1.00
      H109          H  0.4716970  0.5697260  0.9326080    0.00000       Uiso       1.00
      H110          H  0.5283030  0.5697260  0.0673910    0.00000       Uiso       1.00
