data_MC-COF-TP-E22E31
_audit_creation_date              0000-00-00
_audit_creation_method            'LanYouShi'
_symmetry_space_group_name_H-M    'P1'
_cell_length_a                    33.7159996
_cell_length_b                    53.9692001
_cell_length_c                    3.4000001
_cell_angle_alpha                 90.0000000
_cell_angle_beta                  90.0000000
_cell_angle_gamma                 89.3824997
loop_
_atom_site_label
_atom_site_type_symbol
_atom_site_fract_x
_atom_site_fract_y
_atom_site_fract_z
_atom_site_U_iso_or_equiv
_atom_site_adp_type
_atom_site_occupancy
        C1          C  0.4787130  0.5230770  0.4877770    0.00000       Uiso       1.00
        C2          C  0.5213570  0.5227700  0.4868250    0.00000       Uiso       1.00
        C3          C  0.5416130  0.5458270  0.5099460    0.00000       Uiso       1.00
        C4          C  0.5202730  0.5678560  0.5321730    0.00000       Uiso       1.00
        C5          C  0.4799050  0.5681310  0.5360470    0.00000       Uiso       1.00
        C6          C  0.4585160  0.5464010  0.5163570    0.00000       Uiso       1.00
        O7          O  0.4638410  0.5918050  0.5653710    0.00000       Uiso       1.00
        B8          B  0.5001410  0.6064079  0.5788540    0.00000       Uiso       1.00
        O9          O  0.5364020  0.5913100  0.5583870    0.00000       Uiso       1.00
       C10          C  0.4575350  0.5003980  0.4629080    0.00000       Uiso       1.00
       C11          C  0.4788040  0.4771720  0.4543280    0.00000       Uiso       1.00
       C12          C  0.4152340  0.5000870  0.4436480    0.00000       Uiso       1.00
       C13          C  0.3954880  0.4777520  0.4237140    0.00000       Uiso       1.00
       C14          C  0.4156070  0.4557550  0.4185680    0.00000       Uiso       1.00
       C15          C  0.4566540  0.4548120  0.4314910    0.00000       Uiso       1.00
       O16          O  0.3908820  0.4354660  0.3936360    0.00000       Uiso       1.00
       B17          B  0.3521640  0.4479760  0.3843510    0.00000       Uiso       1.00
       O18          O  0.3547200  0.4750050  0.4028650    0.00000       Uiso       1.00
       C19          C  0.5424650  0.4997520  0.4687620    0.00000       Uiso       1.00
       C20          C  0.5211010  0.4768420  0.4629340    0.00000       Uiso       1.00
       C21          C  0.5431800  0.4541130  0.4637720    0.00000       Uiso       1.00
       C22          C  0.5842480  0.4544110  0.4591390    0.00000       Uiso       1.00
       C23          C  0.6044600  0.4761030  0.4538920    0.00000       Uiso       1.00
       C24          C  0.5847930  0.4987650  0.4583180    0.00000       Uiso       1.00
       O25          O  0.6452550  0.4726990  0.4467060    0.00000       Uiso       1.00
       B26          B  0.6477180  0.4456080  0.4485560    0.00000       Uiso       1.00
       O27          O  0.6089240  0.4337080  0.4565600    0.00000       Uiso       1.00
       H28          H  0.5733220  0.5475970  0.5161380    0.00000       Uiso       1.00
       H29          H  0.4268220  0.5485860  0.5292210    0.00000       Uiso       1.00
       H30          H  0.3966840  0.5164030  0.4382770    0.00000       Uiso       1.00
       H31          H  0.4696790  0.4365690  0.4186280    0.00000       Uiso       1.00
       H32          H  0.5300910  0.4360490  0.4698400    0.00000       Uiso       1.00
       H33          H  0.6034490  0.5147790  0.4514190    0.00000       Uiso       1.00
       C34          C  0.4790900  0.8006910  0.8005160    0.00000       Uiso       1.00
       C35          C  0.5217280  0.8004170  0.7932590    0.00000       Uiso       1.00
       C36          C  0.5419240  0.7770830  0.7662450    0.00000       Uiso       1.00
       C37          C  0.5205360  0.7553459  0.7481310    0.00000       Uiso       1.00
       C38          C  0.4801680  0.7556210  0.7520280    0.00000       Uiso       1.00
       C39          C  0.4588310  0.7776430  0.7758300    0.00000       Uiso       1.00
       O40          O  0.4640390  0.7321670  0.7258030    0.00000       Uiso       1.00
       B41          B  0.5002990  0.7170690  0.7053360    0.00000       Uiso       1.00
       O42          O  0.5366000  0.7316729  0.7188181    0.00000       Uiso       1.00
       C43          C  0.4579750  0.8236580  0.8294550    0.00000       Uiso       1.00
       C44          C  0.4792670  0.8465950  0.8339370    0.00000       Uiso       1.00
       C45          C  0.4157210  0.8245460  0.8568530    0.00000       Uiso       1.00
       C46          C  0.3960270  0.8471500  0.8805830    0.00000       Uiso       1.00
       C47          C  0.4161620  0.8688720  0.8818540    0.00000       Uiso       1.00
       C48          C  0.4571760  0.8692560  0.8610330    0.00000       Uiso       1.00
       O49          O  0.3915000  0.8894980  0.9115390    0.00000       Uiso       1.00
       B50          B  0.3528020  0.8775159  0.9282760    0.00000       Uiso       1.00
       O51          O  0.3553080  0.8504520  0.9092750    0.00000       Uiso       1.00
       C52          C  0.5428770  0.8231460  0.8072540    0.00000       Uiso       1.00
       C53          C  0.5215400  0.8463470  0.8171910    0.00000       Uiso       1.00
       C54          C  0.5436220  0.8687750  0.8121030    0.00000       Uiso       1.00
       C55          C  0.5846920  0.8679170  0.8088289    0.00000       Uiso       1.00
       C56          C  0.6049000  0.8459490  0.8101870    0.00000       Uiso       1.00
       C57          C  0.5852190  0.8235560  0.8095480    0.00000       Uiso       1.00
       O58          O  0.6457030  0.8487970  0.8095180    0.00000       Uiso       1.00
       B59          B  0.6481740  0.8758550  0.8071930    0.00000       Uiso       1.00
       O60          O  0.6093780  0.8882840  0.8066570    0.00000       Uiso       1.00
       H61          H  0.5736150  0.7748810  0.7539500    0.00000       Uiso       1.00
       H62          H  0.4271170  0.7758900  0.7690690    0.00000       Uiso       1.00
       H63          H  0.3971770  0.8084830  0.8657950    0.00000       Uiso       1.00
       H64          H  0.4702320  0.8873210  0.8713850    0.00000       Uiso       1.00
       H65          H  0.5305320  0.8870171  0.8085541    0.00000       Uiso       1.00
       H66          H  0.6038780  0.8072870  0.8128560    0.00000       Uiso       1.00
       C67          C  0.0251610  0.2968530  0.4080390    0.00000       Uiso       1.00
       C68          C  0.9825420  0.2971640  0.4225800    0.00000       Uiso       1.00
       C69          C  0.9623940  0.2741250  0.4569730    0.00000       Uiso       1.00
       C70          C  0.9838099  0.2521100  0.4751370    0.00000       Uiso       1.00
       C71          C  0.0241640  0.2518320  0.4643400    0.00000       Uiso       1.00
       C72          C  0.0454580  0.2735470  0.4331870    0.00000       Uiso       1.00
       O73          O  0.0403350  0.2281780  0.4917980    0.00000       Uiso       1.00
       B74          B  0.0041140  0.2135870  0.5209770    0.00000       Uiso       1.00
       O75          O  0.9677970  0.2286750  0.5111850    0.00000       Uiso       1.00
       C76          C  0.0462240  0.3195120  0.3716260    0.00000       Uiso       1.00
       C77          C  0.0249290  0.3427340  0.3668710    0.00000       Uiso       1.00
       C78          C  0.0884250  0.3198070  0.3369080    0.00000       Uiso       1.00
       C79          C  0.1080760  0.3421260  0.3060070    0.00000       Uiso       1.00
       C80          C  0.0879440  0.3641200  0.3044720    0.00000       Uiso       1.00
       C81          C  0.0469720  0.3650760  0.3321880    0.00000       Uiso       1.00
       O82          O  0.1125520  0.3843900  0.2671090    0.00000       Uiso       1.00
       B83          B  0.1512140  0.3718700  0.2458370    0.00000       Uiso       1.00
       O84          O  0.1487390  0.3448550  0.2698480    0.00000       Uiso       1.00
       C85          C  0.9613739  0.3201710  0.4083250    0.00000       Uiso       1.00
       C86          C  0.9826930  0.3430730  0.3908330    0.00000       Uiso       1.00
       C87          C  0.9606240  0.3658040  0.3958680    0.00000       Uiso       1.00
       C88          C  0.9195660  0.3655070  0.4062600    0.00000       Uiso       1.00
       C89          C  0.8993570  0.3438150  0.4120580    0.00000       Uiso       1.00
       C90          C  0.9190340  0.3211550  0.4131510    0.00000       Uiso       1.00
       O91          O  0.8585620  0.3472180  0.4191720    0.00000       Uiso       1.00
       B92          B  0.8560970  0.3743090  0.4173290    0.00000       Uiso       1.00
       O93          O  0.8948890  0.3862100  0.4091700    0.00000       Uiso       1.00
       H94          H  0.9307300  0.2723620  0.4750200    0.00000       Uiso       1.00
       H95          H  0.0771790  0.2713670  0.4348580    0.00000       Uiso       1.00
       H96          H  0.1069490  0.3034870  0.3275430    0.00000       Uiso       1.00
       H97          H  0.0339010  0.3833100  0.3209930    0.00000       Uiso       1.00
       H98          H  0.9737200  0.3838690  0.3941010    0.00000       Uiso       1.00
       H99          H  0.9003720  0.3051390  0.4157700    0.00000       Uiso       1.00
      C100          C  0.0256910  0.0194610  0.7750410    0.00000       Uiso       1.00
      C101          C  0.9830521  0.0197310  0.7687060    0.00000       Uiso       1.00
      C102          C  0.9628510  0.0430460  0.7381960    0.00000       Uiso       1.00
      C103          C  0.9842360  0.0647690  0.7159120    0.00000       Uiso       1.00
      C104          C  0.0246040  0.0644950  0.7189390    0.00000       Uiso       1.00
      C105          C  0.0459450  0.0424900  0.7459890    0.00000       Uiso       1.00
      O106          O  0.0407280  0.0879300  0.6883720    0.00000       Uiso       1.00
      B107          B  0.0044640  0.1030140  0.6661701    0.00000       Uiso       1.00
      O108          O  0.9681671  0.0884220  0.6829510    0.00000       Uiso       1.00
      C109          C  0.0468110  0.9965140  0.8073940    0.00000       Uiso       1.00
      C110          C  0.0255190  0.9735830  0.8162480    0.00000       Uiso       1.00
      C111          C  0.0890710  0.9956430  0.8339820    0.00000       Uiso       1.00
      C112          C  0.1087700  0.9730560  0.8610960    0.00000       Uiso       1.00
      C113          C  0.0886340  0.9513360  0.8665070    0.00000       Uiso       1.00
      C114          C  0.0476150  0.9509400  0.8466830    0.00000       Uiso       1.00
      O115          O  0.1133020  0.9307310  0.8991280    0.00000       Uiso       1.00
      B116          B  0.1520040  0.9427230  0.9129539    0.00000       Uiso       1.00
      O117          O  0.1494940  0.9697720  0.8894220    0.00000       Uiso       1.00
      C118          C  0.9619040  0.9970130  0.7870339    0.00000       Uiso       1.00
      C119          C  0.9832440  0.9738200  0.8004210    0.00000       Uiso       1.00
      C120          C  0.9611590  0.9513900  0.7996360    0.00000       Uiso       1.00
      C121          C  0.9200890  0.9522480  0.7971490    0.00000       Uiso       1.00
      C122          C  0.8998820  0.9742150  0.7952410    0.00000       Uiso       1.00
      C123          C  0.9195630  0.9966070  0.7903590    0.00000       Uiso       1.00
      O124          O  0.8590790  0.9713680  0.7959810    0.00000       Uiso       1.00
      B125          B  0.8566060  0.9443110  0.7983001    0.00000       Uiso       1.00
      O126          O  0.8954020  0.9318810  0.7989911    0.00000       Uiso       1.00
      H127          H  0.9311580  0.0452410  0.7262470    0.00000       Uiso       1.00
      H128          H  0.0776580  0.0442370  0.7382120    0.00000       Uiso       1.00
      H129          H  0.1076180  0.0117100  0.8397790    0.00000       Uiso       1.00
      H130          H  0.0345610  0.9328840  0.8603940    0.00000       Uiso       1.00
      H131          H  0.9742481  0.9331460  0.7988830    0.00000       Uiso       1.00
      H132          H  0.9009070  0.0128760  0.7913320    0.00000       Uiso       1.00
      C133          C  0.5000880  0.6901140  0.6747820    0.00000       Uiso       1.00
      C134          C  0.4604560  0.6762310  0.6624250    0.00000       Uiso       1.00
      C135          C  0.5392230  0.6473250  0.6222980    0.00000       Uiso       1.00
      N136          N  0.5802610  0.6356870  0.6052720    0.00000       Uiso       1.00
      S137          S  0.6132160  0.6609640  0.6311990    0.00000       Uiso       1.00
      N138          N  0.5803260  0.6866900  0.6635181    0.00000       Uiso       1.00
      H139          H  0.4312070  0.6869919  0.6771570    0.00000       Uiso       1.00
      C140          C  0.5392560  0.6756140  0.6545240    0.00000       Uiso       1.00
      C141          C  0.4604240  0.6477820  0.6298170    0.00000       Uiso       1.00
      C142          C  0.5000180  0.6333620  0.6096250    0.00000       Uiso       1.00
      H143          H  0.4311580  0.6374170  0.6206990    0.00000       Uiso       1.00
      C144          C  0.8180840  0.3882590  0.4230080    0.00000       Uiso       1.00
      C145          C  0.6857320  0.4316590  0.4430120    0.00000       Uiso       1.00
      S146          S  0.8130260  0.4218070  0.4209370    0.00000       Uiso       1.00
      S147          S  0.6907900  0.3981110  0.4451420    0.00000       Uiso       1.00
      C148          C  0.7599490  0.4229620  0.4305740    0.00000       Uiso       1.00
      C149          C  0.7438680  0.3969580  0.4357590    0.00000       Uiso       1.00
      C150          C  0.7761120  0.3763400  0.4316130    0.00000       Uiso       1.00
      C151          C  0.7277050  0.4435800  0.4344770    0.00000       Uiso       1.00
      H152          H  0.7701320  0.3555900  0.4343910    0.00000       Uiso       1.00
      H153          H  0.7336850  0.4643300  0.4315470    0.00000       Uiso       1.00
      C154          C  0.1891780  0.3852720  0.2714420    0.00000       Uiso       1.00
      C155          C  0.3142010  0.4345730  0.3588800    0.00000       Uiso       1.00
      S156          S  0.2381110  0.3708640  0.2839350    0.00000       Uiso       1.00
      S157          S  0.2652680  0.4489810  0.3464460    0.00000       Uiso       1.00
      C158          C  0.2657480  0.3989370  0.3145070    0.00000       Uiso       1.00
      C159          C  0.2376320  0.4209060  0.3161280    0.00000       Uiso       1.00
      C160          C  0.1932660  0.4140280  0.2917780    0.00000       Uiso       1.00
      C161          C  0.3101150  0.4058160  0.3386140    0.00000       Uiso       1.00
      H162          H  0.1674710  0.4278570  0.2890660    0.00000       Uiso       1.00
      H163          H  0.3359110  0.3919860  0.3411740    0.00000       Uiso       1.00
      C164          C  0.8185830  0.9308790  0.7999390    0.00000       Uiso       1.00
      C165          C  0.6861980  0.8892850  0.8054181    0.00000       Uiso       1.00
      S166          S  0.8135150  0.8974000  0.8029860    0.00000       Uiso       1.00
      S167          S  0.6912660  0.9227640  0.8023130    0.00000       Uiso       1.00
      C168          C  0.7604290  0.8969700  0.8035670    0.00000       Uiso       1.00
      C169          C  0.7443530  0.9231930  0.8014780    0.00000       Uiso       1.00
      C170          C  0.7766070  0.9433710  0.7994140    0.00000       Uiso       1.00
      C171          C  0.7281750  0.8767910  0.8058730    0.00000       Uiso       1.00
      H172          H  0.7706330  0.9642020  0.7977871    0.00000       Uiso       1.00
      H173          H  0.7341500  0.8559600  0.8076530    0.00000       Uiso       1.00
      C174          C  0.1900960  0.9424420  1.0725321    0.00000       Uiso       1.00
      C175          C  0.3149010  0.8914360  0.9610480    0.00000       Uiso       1.00
      S176          S  0.2390010  0.9561820  1.0506210    0.00000       Uiso       1.00
      S177          S  0.2659960  0.8776960  0.9829000    0.00000       Uiso       1.00
      C178          C  0.2665600  0.9277330  1.0147370    0.00000       Uiso       1.00
      C179          C  0.2384370  0.9061470  1.0185300    0.00000       Uiso       1.00
      C180          C  0.1941300  0.9136299  1.0514140    0.00000       Uiso       1.00
      C181          C  0.3108690  0.9202490  0.9820950    0.00000       Uiso       1.00
      H182          H  0.1683390  0.9001520  1.0590920    0.00000       Uiso       1.00
      H183          H  0.3366610  0.9337271  0.9745700    0.00000       Uiso       1.00
      C184          C  0.0043710  0.1321930  0.6278560    0.00000       Uiso       1.00
      C185          C  0.0402490  0.1451230  0.6009549    0.00000       Uiso       1.00
      C186          C  0.9683300  0.1714770  0.5861950    0.00000       Uiso       1.00
      H187          H  0.0683660  0.1351660  0.6062690    0.00000       Uiso       1.00
      C188          C  0.9684110  0.1456180  0.6201520    0.00000       Uiso       1.00
      C189          C  0.0401670  0.1709820  0.5669990    0.00000       Uiso       1.00
      H190          H  0.9403550  0.1360480  0.6404770    0.00000       Uiso       1.00
      C191          C  0.0042070  0.1844070  0.5592930    0.00000       Uiso       1.00
      H192          H  0.0682210  0.1805530  0.5466720    0.00000       Uiso       1.00
      H193          H  0.9402140  0.1814360  0.5808780    0.00000       Uiso       1.00
