data_MPCOF
_audit_creation_date              0000-00-00
_audit_creation_method            'LanYouShi'
_symmetry_space_group_name_H-M    'P1'
_cell_length_a                    16.6942005
_cell_length_b                    16.6942005
_cell_length_c                    6.7978001
_cell_angle_alpha                 90.0000000
_cell_angle_beta                  90.0000000
_cell_angle_gamma                 120.0000000
loop_
_atom_site_label
_atom_site_type_symbol
_atom_site_fract_x
_atom_site_fract_y
_atom_site_fract_z
_atom_site_U_iso_or_equiv
_atom_site_adp_type
_atom_site_occupancy
        N1          N  0.6480330  0.1742770  0.3253260    0.00000       Uiso       1.00
        H2          H  0.7083270  0.1876700  0.2805820    0.00000       Uiso       1.00
        N3          N  0.8257230  0.4737560  0.3253260    0.00000       Uiso       1.00
        H4          H  0.8123299  0.5206560  0.2805820    0.00000       Uiso       1.00
        N5          N  0.5262450  0.3519680  0.3253260    0.00000       Uiso       1.00
        H6          H  0.4793440  0.2916740  0.2805820    0.00000       Uiso       1.00
        N7          N  0.3519680  0.8257230  0.3253260    0.00000       Uiso       1.00
        H8          H  0.2916740  0.8123300  0.2805820    0.00000       Uiso       1.00
        N9          N  0.1742770  0.5262450  0.3253260    0.00000       Uiso       1.00
       H10          H  0.1876700  0.4793440  0.2805820    0.00000       Uiso       1.00
       N11          N  0.4737560  0.6480330  0.3253260    0.00000       Uiso       1.00
       H12          H  0.5206560  0.7083270  0.2805820    0.00000       Uiso       1.00
       N13          N  0.3519680  0.8257230  0.6746770    0.00000       Uiso       1.00
       H14          H  0.2916740  0.8123300  0.7194200    0.00000       Uiso       1.00
       N15          N  0.1742770  0.5262450  0.6746770    0.00000       Uiso       1.00
       H16          H  0.1876700  0.4793440  0.7194200    0.00000       Uiso       1.00
       N17          N  0.4737560  0.6480330  0.6746770    0.00000       Uiso       1.00
       H18          H  0.5206560  0.7083270  0.7194200    0.00000       Uiso       1.00
       N19          N  0.6480330  0.1742770  0.6746770    0.00000       Uiso       1.00
       H20          H  0.7083270  0.1876700  0.7194200    0.00000       Uiso       1.00
       N21          N  0.8257230  0.4737560  0.6746770    0.00000       Uiso       1.00
       H22          H  0.8123299  0.5206560  0.7194200    0.00000       Uiso       1.00
       N23          N  0.5262450  0.3519680  0.6746770    0.00000       Uiso       1.00
       H24          H  0.4793440  0.2916740  0.7194200    0.00000       Uiso       1.00
       C25          C  0.5745450  0.0923500  0.2703430    0.00000       Uiso       1.00
       C26          C  0.9076500  0.4821950  0.2703430    0.00000       Uiso       1.00
       C27          C  0.5178060  0.4254560  0.2703430    0.00000       Uiso       1.00
       C28          C  0.4254560  0.9076500  0.2703430    0.00000       Uiso       1.00
       C29          C  0.0923500  0.5178060  0.2703430    0.00000       Uiso       1.00
       C30          C  0.4821950  0.5745450  0.2703430    0.00000       Uiso       1.00
       C31          C  0.4254560  0.9076500  0.7296600    0.00000       Uiso       1.00
       C32          C  0.0923500  0.5178060  0.7296600    0.00000       Uiso       1.00
       C33          C  0.4821950  0.5745450  0.7296600    0.00000       Uiso       1.00
       C34          C  0.5745450  0.0923500  0.7296600    0.00000       Uiso       1.00
       C35          C  0.9076500  0.4821950  0.7296600    0.00000       Uiso       1.00
       C36          C  0.5178060  0.4254560  0.7296600    0.00000       Uiso       1.00
       C37          C  0.5917380  0.0182770  0.2486910    0.00000       Uiso       1.00
       C38          C  0.9817230  0.5734600  0.2486910    0.00000       Uiso       1.00
       C39          C  0.4265410  0.4082630  0.2486910    0.00000       Uiso       1.00
       C40          C  0.4082630  0.9817230  0.2486910    0.00000       Uiso       1.00
       C41          C  0.0182770  0.4265410  0.2486910    0.00000       Uiso       1.00
       C42          C  0.5734600  0.5917380  0.2486910    0.00000       Uiso       1.00
       C43          C  0.4082630  0.9817230  0.7513110    0.00000       Uiso       1.00
       C44          C  0.0182770  0.4265410  0.7513110    0.00000       Uiso       1.00
       C45          C  0.5734600  0.5917380  0.7513110    0.00000       Uiso       1.00
       C46          C  0.5917380  0.0182770  0.7513110    0.00000       Uiso       1.00
       C47          C  0.9817230  0.5734600  0.7513110    0.00000       Uiso       1.00
       C48          C  0.4265410  0.4082630  0.7513110    0.00000       Uiso       1.00
       C49          C  0.5176970  0.9264020  0.2545380    0.00000       Uiso       1.00
       C50          C  0.0735990  0.5912960  0.2545380    0.00000       Uiso       1.00
       C51          C  0.4087040  0.4823040  0.2545380    0.00000       Uiso       1.00
       C52          C  0.4823040  0.0735990  0.2545380    0.00000       Uiso       1.00
       C53          C  0.9264020  0.4087040  0.2545380    0.00000       Uiso       1.00
       C54          C  0.5912960  0.5176970  0.2545380    0.00000       Uiso       1.00
       C55          C  0.4823040  0.0735990  0.7454650    0.00000       Uiso       1.00
       C56          C  0.9264020  0.4087040  0.7454650    0.00000       Uiso       1.00
       C57          C  0.5912960  0.5176970  0.7454650    0.00000       Uiso       1.00
       C58          C  0.5176970  0.9264020  0.7454650    0.00000       Uiso       1.00
       C59          C  0.0735990  0.5912960  0.7454650    0.00000       Uiso       1.00
       C60          C  0.4087040  0.4823040  0.7454650    0.00000       Uiso       1.00
       H61          H  0.6580840  0.0303630  0.2432220    0.00000       Uiso       1.00
       H62          H  0.9696380  0.6277210  0.2432220    0.00000       Uiso       1.00
       H63          H  0.3722800  0.3419170  0.2432220    0.00000       Uiso       1.00
       H64          H  0.3419170  0.9696380  0.2432220    0.00000       Uiso       1.00
       H65          H  0.0303630  0.3722800  0.2432220    0.00000       Uiso       1.00
       H66          H  0.6277210  0.6580840  0.2432220    0.00000       Uiso       1.00
       H67          H  0.3419170  0.9696380  0.7567810    0.00000       Uiso       1.00
       H68          H  0.0303630  0.3722800  0.7567810    0.00000       Uiso       1.00
       H69          H  0.6277210  0.6580840  0.7567810    0.00000       Uiso       1.00
       H70          H  0.6580840  0.0303630  0.7567810    0.00000       Uiso       1.00
       H71          H  0.9696380  0.6277210  0.7567810    0.00000       Uiso       1.00
       H72          H  0.3722800  0.3419170  0.7567810    0.00000       Uiso       1.00
       H73          H  0.5312570  0.8732400  0.2525270    0.00000       Uiso       1.00
       H74          H  0.1267610  0.6580180  0.2525270    0.00000       Uiso       1.00
       H75          H  0.3419830  0.4687440  0.2525270    0.00000       Uiso       1.00
       H76          H  0.4687440  0.1267610  0.2525270    0.00000       Uiso       1.00
       H77          H  0.8732400  0.3419830  0.2525270    0.00000       Uiso       1.00
       H78          H  0.6580180  0.5312570  0.2525270    0.00000       Uiso       1.00
       H79          H  0.4687440  0.1267610  0.7474760    0.00000       Uiso       1.00
       H80          H  0.8732400  0.3419830  0.7474760    0.00000       Uiso       1.00
       H81          H  0.6580180  0.5312570  0.7474760    0.00000       Uiso       1.00
       H82          H  0.5312570  0.8732400  0.7474760    0.00000       Uiso       1.00
       H83          H  0.1267610  0.6580180  0.7474760    0.00000       Uiso       1.00
       H84          H  0.3419830  0.4687440  0.7474760    0.00000       Uiso       1.00
       P85          P  0.3507460  0.7659810  0.5000010    0.00000       Uiso       1.00
       P86          P  0.2340200  0.5847660  0.5000010    0.00000       Uiso       1.00
       P87          P  0.4152350  0.6492550  0.5000010    0.00000       Uiso       1.00
       N88          N  0.4283450  0.7448520  0.5000010    0.00000       Uiso       1.00
       N89          N  0.2551490  0.6834940  0.5000010    0.00000       Uiso       1.00
       N90          N  0.3165060  0.5716550  0.5000010    0.00000       Uiso       1.00
       P91          P  0.6492550  0.2340200  0.5000010    0.00000       Uiso       1.00
       P92          P  0.7659810  0.4152350  0.5000010    0.00000       Uiso       1.00
       P93          P  0.5847660  0.3507460  0.5000010    0.00000       Uiso       1.00
       N94          N  0.5716550  0.2551490  0.5000010    0.00000       Uiso       1.00
       N95          N  0.7448520  0.3165060  0.5000010    0.00000       Uiso       1.00
       N96          N  0.6834940  0.4283450  0.5000010    0.00000       Uiso       1.00
