data_N3-COF
_audit_creation_date              0000-00-00
_audit_creation_method            'LanYouShi'
_symmetry_space_group_name_H-M    'P1'
_cell_length_a                    25.8027000
_cell_length_b                    25.8027000
_cell_length_c                    3.4700000
_cell_angle_alpha                 90.0000000
_cell_angle_beta                  90.0000000
_cell_angle_gamma                 120.0000000
loop_
_atom_site_label
_atom_site_type_symbol
_atom_site_fract_x
_atom_site_fract_y
_atom_site_fract_z
_atom_site_U_iso_or_equiv
_atom_site_adp_type
_atom_site_occupancy
        C1          C  0.7281830  0.3614660  0.5075020    0.00000       Uiso       1.00
        C2          C  0.2726390  0.6272390  0.5075020    0.00000       Uiso       1.00
        C3          C  0.6385320  0.3667170  0.5075020    0.00000       Uiso       1.00
        C4          C  0.3727590  0.6453990  0.5075020    0.00000       Uiso       1.00
        C5          C  0.6332810  0.2718150  0.5075020    0.00000       Uiso       1.00
        C6          C  0.3546000  0.7273590  0.5075020    0.00000       Uiso       1.00
        N7          N  0.6939580  0.3009470  0.5075020    0.00000       Uiso       1.00
        N8          N  0.2950850  0.6872970  0.5075020    0.00000       Uiso       1.00
        N9          N  0.6990510  0.3930110  0.5075020    0.00000       Uiso       1.00
       N10          N  0.3127010  0.6077860  0.5075020    0.00000       Uiso       1.00
       N11          N  0.6069870  0.3060410  0.5075020    0.00000       Uiso       1.00
       N12          N  0.3922120  0.7049130  0.5075020    0.00000       Uiso       1.00
       C13          C  0.2101750  0.5866520  0.5075020    0.00000       Uiso       1.00
       C14          C  0.7915140  0.3904290  0.5075020    0.00000       Uiso       1.00
       C15          C  0.4133460  0.6235210  0.5075020    0.00000       Uiso       1.00
       C16          C  0.6095690  0.4010840  0.5075020    0.00000       Uiso       1.00
       C17          C  0.3764780  0.7898230  0.5075020    0.00000       Uiso       1.00
       C18          C  0.5989140  0.2084840  0.5075020    0.00000       Uiso       1.00
       C19          C  0.1683990  0.6071130  0.5075020    0.00000       Uiso       1.00
       C20          C  0.8218409  0.3572790  0.5075020    0.00000       Uiso       1.00
       C21          C  0.6265760  0.1728230  0.5075020    0.00000       Uiso       1.00
       C22          C  0.3370240  0.8131270  0.5075020    0.00000       Uiso       1.00
       C23          C  0.3928850  0.5612840  0.5075020    0.00000       Uiso       1.00
       C24          C  0.6427190  0.4645620  0.5075020    0.00000       Uiso       1.00
       C25          C  0.8271750  0.4537530  0.5075020    0.00000       Uiso       1.00
       C26          C  0.1868710  0.5238960  0.5075020    0.00000       Uiso       1.00
       C27          C  0.4387140  0.8315989  0.5075020    0.00000       Uiso       1.00
       C28          C  0.5354360  0.1781570  0.5075020    0.00000       Uiso       1.00
       C29          C  0.5462450  0.3734230  0.5075020    0.00000       Uiso       1.00
       C30          C  0.4761030  0.6629740  0.5075020    0.00000       Uiso       1.00
       C31          C  0.1063570  0.5668070  0.5075020    0.00000       Uiso       1.00
       C32          C  0.8847700  0.3860170  0.5075020    0.00000       Uiso       1.00
       C33          C  0.5923490  0.1099110  0.5075020    0.00000       Uiso       1.00
       C34          C  0.3586980  0.8751610  0.5075020    0.00000       Uiso       1.00
       C35          C  0.4331910  0.5395490  0.5075020    0.00000       Uiso       1.00
       C36          C  0.6139810  0.4987530  0.5075020    0.00000       Uiso       1.00
       C37          C  0.8900870  0.4824380  0.5075020    0.00000       Uiso       1.00
       C38          C  0.1248370  0.4835350  0.5075020    0.00000       Uiso       1.00
       C39          C  0.4604500  0.8936411  0.5075020    0.00000       Uiso       1.00
       C40          C  0.5012450  0.1152280  0.5075020    0.00000       Uiso       1.00
       C41          C  0.5175600  0.4076490  0.5075020    0.00000       Uiso       1.00
       C42          C  0.5164630  0.6413000  0.5075020    0.00000       Uiso       1.00
       C43          C  0.0834400  0.5042680  0.5075020    0.00000       Uiso       1.00
       C44          C  0.9196560  0.4490770  0.5075020    0.00000       Uiso       1.00
       C45          C  0.4957300  0.5791700  0.5075020    0.00000       Uiso       1.00
       C46          C  0.5509210  0.4705780  0.5075020    0.00000       Uiso       1.00
       C47          C  0.4208280  0.9165580  0.5075020    0.00000       Uiso       1.00
       C48          C  0.5294200  0.0803430  0.5075020    0.00000       Uiso       1.00
       N49          N  0.5005100  0.0197670  0.5075020    0.00000       Uiso       1.00
       C50          C  0.4414710  0.9785120  0.5075020    0.00000       Uiso       1.00
       N51          N  0.9802310  0.4807430  0.5075020    0.00000       Uiso       1.00
       C52          C  0.0214860  0.4629580  0.5075020    0.00000       Uiso       1.00
       N53          N  0.5192550  0.4994880  0.5075020    0.00000       Uiso       1.00
       C54          C  0.5370400  0.5585270  0.5075020    0.00000       Uiso       1.00
       H55          H  0.1827190  0.6519320  0.5075020    0.00000       Uiso       1.00
       H56          H  0.7982970  0.3114880  0.5075020    0.00000       Uiso       1.00
       H57          H  0.6722050  0.1923130  0.5075020    0.00000       Uiso       1.00
       H58          H  0.2916740  0.7849860  0.5075020    0.00000       Uiso       1.00
       H59          H  0.3480670  0.5307860  0.5075020    0.00000       Uiso       1.00
       H60          H  0.6885100  0.4868090  0.5075020    0.00000       Uiso       1.00
       H61          H  0.8076860  0.4798920  0.5075020    0.00000       Uiso       1.00
       H62          H  0.2150130  0.5066870  0.5075020    0.00000       Uiso       1.00
       H63          H  0.4692130  0.8172789  0.5075020    0.00000       Uiso       1.00
       H64          H  0.5131890  0.2017010  0.5075020    0.00000       Uiso       1.00
       H65          H  0.5201060  0.3277930  0.5075020    0.00000       Uiso       1.00
       H66          H  0.4933120  0.7083240  0.5075020    0.00000       Uiso       1.00
       H67          H  0.0779380  0.5836800  0.5075020    0.00000       Uiso       1.00
       H68          H  0.9046680  0.3604190  0.5075020    0.00000       Uiso       1.00
       H69          H  0.6136030  0.0854290  0.5075020    0.00000       Uiso       1.00
       H70          H  0.3284060  0.8897640  0.5075020    0.00000       Uiso       1.00
       H71          H  0.4163180  0.4942560  0.5075020    0.00000       Uiso       1.00
       H72          H  0.6395790  0.5442490  0.5075020    0.00000       Uiso       1.00
       H73          H  0.9145690  0.5281730  0.5075020    0.00000       Uiso       1.00
       H74          H  0.1102340  0.4386390  0.5075020    0.00000       Uiso       1.00
       H75          H  0.5057420  0.9220610  0.5075020    0.00000       Uiso       1.00
       H76          H  0.4557500  0.0953310  0.5075020    0.00000       Uiso       1.00
       H77          H  0.4718250  0.3863960  0.5075020    0.00000       Uiso       1.00
       H78          H  0.5613590  0.6715920  0.5075020    0.00000       Uiso       1.00
       H79          H  0.4107040  0.9924140  0.5075020    0.00000       Uiso       1.00
       H80          H  0.0075840  0.4182880  0.5075020    0.00000       Uiso       1.00
       H81          H  0.5817100  0.5892940  0.5075020    0.00000       Uiso       1.00
