data_AEM-COF-2
_audit_creation_date              0000-00-00
_audit_creation_method            'LanYouShi'
_symmetry_space_group_name_H-M    'P1'
_cell_length_a                    40.9350014
_cell_length_b                    40.9350014
_cell_length_c                    3.2570000
_cell_angle_alpha                 90.0000000
_cell_angle_beta                  90.0000000
_cell_angle_gamma                 120.0000000
loop_
_atom_site_label
_atom_site_type_symbol
_atom_site_fract_x
_atom_site_fract_y
_atom_site_fract_z
_atom_site_U_iso_or_equiv
_atom_site_adp_type
_atom_site_occupancy
        H1          H  0.0368400  0.5710300  0.0000000    0.00000       Uiso       1.00
        C2          C  0.0190700  0.5404800  0.0000000    0.00000       Uiso       1.00
        O3          O  0.0949100  0.5761800  0.0000000    0.00000       Uiso       1.00
        C4          C  0.1302300  0.5816000  0.0000000    0.00000       Uiso       1.00
        C5          C  0.1616300  0.6163200  0.0000000    0.00000       Uiso       1.00
        C6          C  0.1565600  0.6477900  0.0000000    0.00000       Uiso       1.00
        H7          H  0.1281000  0.6434300  0.0000000    0.00000       Uiso       1.00
        C8          C  0.1882400  0.6819700  0.0000000    0.00000       Uiso       1.00
        H9          H  0.1885900  0.7087000  0.0000000    0.00000       Uiso       1.00
       C10          C  0.2226600  0.6821600  0.0000000    0.00000       Uiso       1.00
       C11          C  0.2543900  0.7164100  0.0000000    0.00000       Uiso       1.00
       C12          C  0.4197700  0.6156000  0.0000000    0.00000       Uiso       1.00
       C13          C  0.3491100  0.5767200  0.0000000    0.00000       Uiso       1.00
       H14          H  0.4289700  0.4658100  0.0000000    0.00000       Uiso       1.00
       C15          C  0.4595200  0.4785900  0.0000000    0.00000       Uiso       1.00
       O16          O  0.4238200  0.5187300  0.0000000    0.00000       Uiso       1.00
       C17          C  0.4184000  0.5486300  0.0000000    0.00000       Uiso       1.00
       C18          C  0.3836800  0.5453100  0.0000000    0.00000       Uiso       1.00
       C19          C  0.3522100  0.5087700  0.0000000    0.00000       Uiso       1.00
       H20          H  0.3565700  0.4846700  0.0000000    0.00000       Uiso       1.00
       C21          C  0.3180300  0.5062700  0.0000000    0.00000       Uiso       1.00
       H22          H  0.2913000  0.4798900  0.0000000    0.00000       Uiso       1.00
       C23          C  0.3178400  0.5405000  0.0000000    0.00000       Uiso       1.00
       C24          C  0.2835900  0.5379800  0.0000000    0.00000       Uiso       1.00
       C25          C  0.3844000  0.8041700  0.0000000    0.00000       Uiso       1.00
       C26          C  0.4232800  0.7723900  0.0000000    0.00000       Uiso       1.00
       H27          H  0.5341900  0.9631600  0.0000000    0.00000       Uiso       1.00
       C28          C  0.5214100  0.9809300  0.0000000    0.00000       Uiso       1.00
       O29          O  0.4812700  0.9050900  0.0000000    0.00000       Uiso       1.00
       C30          C  0.4513700  0.8697700  0.0000000    0.00000       Uiso       1.00
       C31          C  0.4546900  0.8383700  0.0000000    0.00000       Uiso       1.00
       C32          C  0.4912300  0.8434400  0.0000000    0.00000       Uiso       1.00
       H33          H  0.5153300  0.8719000  0.0000000    0.00000       Uiso       1.00
       C34          C  0.4937300  0.8117600  0.0000000    0.00000       Uiso       1.00
       H35          H  0.5201100  0.8114100  0.0000000    0.00000       Uiso       1.00
       C36          C  0.4595000  0.7773400  0.0000000    0.00000       Uiso       1.00
       C37          C  0.4620200  0.7456100  0.0000000    0.00000       Uiso       1.00
       C38          C  0.1958300  0.5802300  0.0000000    0.00000       Uiso       1.00
       C39          C  0.2276100  0.6508900  0.0000000    0.00000       Uiso       1.00
       H40          H  0.9631600  0.4289700  0.0000000    0.00000       Uiso       1.00
       C41          C  0.9809300  0.4595200  0.0000000    0.00000       Uiso       1.00
       O42          O  0.9050900  0.4238200  0.0000000    0.00000       Uiso       1.00
       C43          C  0.8697700  0.4184000  0.0000000    0.00000       Uiso       1.00
       C44          C  0.8383700  0.3836800  0.0000000    0.00000       Uiso       1.00
       C45          C  0.8434400  0.3522100  0.0000000    0.00000       Uiso       1.00
       H46          H  0.8719000  0.3565700  0.0000000    0.00000       Uiso       1.00
       C47          C  0.8117600  0.3180300  0.0000000    0.00000       Uiso       1.00
       H48          H  0.8114100  0.2913000  0.0000000    0.00000       Uiso       1.00
       C49          C  0.7773400  0.3178400  0.0000000    0.00000       Uiso       1.00
       C50          C  0.7456100  0.2835900  0.0000000    0.00000       Uiso       1.00
       C51          C  0.5802300  0.3844000  0.0000000    0.00000       Uiso       1.00
       C52          C  0.6508900  0.4232800  0.0000000    0.00000       Uiso       1.00
       H53          H  0.5710300  0.5341900  0.0000000    0.00000       Uiso       1.00
       C54          C  0.5404800  0.5214100  0.0000000    0.00000       Uiso       1.00
       O55          O  0.5761800  0.4812700  0.0000000    0.00000       Uiso       1.00
       C56          C  0.5816000  0.4513700  0.0000000    0.00000       Uiso       1.00
       C57          C  0.6163200  0.4546900  0.0000000    0.00000       Uiso       1.00
       C58          C  0.6477900  0.4912300  0.0000000    0.00000       Uiso       1.00
       H59          H  0.6434300  0.5153300  0.0000000    0.00000       Uiso       1.00
       C60          C  0.6819700  0.4937300  0.0000000    0.00000       Uiso       1.00
       H61          H  0.7087000  0.5201100  0.0000000    0.00000       Uiso       1.00
       C62          C  0.6821601  0.4595000  0.0000000    0.00000       Uiso       1.00
       C63          C  0.7164100  0.4620200  0.0000000    0.00000       Uiso       1.00
       C64          C  0.6156000  0.1958300  0.0000000    0.00000       Uiso       1.00
       C65          C  0.5767200  0.2276100  0.0000000    0.00000       Uiso       1.00
       H66          H  0.4658100  0.0368400  0.0000000    0.00000       Uiso       1.00
       C67          C  0.4785900  0.0190700  0.0000000    0.00000       Uiso       1.00
       O68          O  0.5187300  0.0949100  0.0000000    0.00000       Uiso       1.00
       C69          C  0.5486300  0.1302300  0.0000000    0.00000       Uiso       1.00
       C70          C  0.5453100  0.1616300  0.0000000    0.00000       Uiso       1.00
       C71          C  0.5087700  0.1565600  0.0000000    0.00000       Uiso       1.00
       H72          H  0.4846700  0.1281000  0.0000000    0.00000       Uiso       1.00
       C73          C  0.5062700  0.1882400  0.0000000    0.00000       Uiso       1.00
       H74          H  0.4798900  0.1885900  0.0000000    0.00000       Uiso       1.00
       C75          C  0.5405000  0.2226600  0.0000000    0.00000       Uiso       1.00
       C76          C  0.5379800  0.2543900  0.0000000    0.00000       Uiso       1.00
       C77          C  0.8041700  0.4197700  0.0000000    0.00000       Uiso       1.00
       C78          C  0.7723900  0.3491100  0.0000000    0.00000       Uiso       1.00
       H79          H  0.5710300  0.0368400  0.0000000    0.00000       Uiso       1.00
       C80          C  0.5404800  0.0190700  0.0000000    0.00000       Uiso       1.00
       O81          O  0.5761800  0.0949100  0.0000000    0.00000       Uiso       1.00
       C82          C  0.5816000  0.1302300  0.0000000    0.00000       Uiso       1.00
       C83          C  0.6163200  0.1616300  0.0000000    0.00000       Uiso       1.00
       C84          C  0.6477900  0.1565600  0.0000000    0.00000       Uiso       1.00
       H85          H  0.6434300  0.1281000  0.0000000    0.00000       Uiso       1.00
       C86          C  0.6819700  0.1882400  0.0000000    0.00000       Uiso       1.00
       H87          H  0.7087000  0.1885900  0.0000000    0.00000       Uiso       1.00
       C88          C  0.6821600  0.2226600  0.0000000    0.00000       Uiso       1.00
       C89          C  0.7164100  0.2543900  0.0000000    0.00000       Uiso       1.00
       C90          C  0.6156000  0.4197700  0.0000000    0.00000       Uiso       1.00
       C91          C  0.5767200  0.3491100  0.0000000    0.00000       Uiso       1.00
       H92          H  0.4658100  0.4289700  0.0000000    0.00000       Uiso       1.00
       C93          C  0.4785900  0.4595200  0.0000000    0.00000       Uiso       1.00
       O94          O  0.5187300  0.4238200  0.0000000    0.00000       Uiso       1.00
       C95          C  0.5486300  0.4184000  0.0000000    0.00000       Uiso       1.00
       C96          C  0.5453100  0.3836800  0.0000000    0.00000       Uiso       1.00
       C97          C  0.5087700  0.3522100  0.0000000    0.00000       Uiso       1.00
       H98          H  0.4846700  0.3565700  0.0000000    0.00000       Uiso       1.00
       C99          C  0.5062700  0.3180300  0.0000000    0.00000       Uiso       1.00
      H100          H  0.4798900  0.2913000  0.0000000    0.00000       Uiso       1.00
      C101          C  0.5405000  0.3178400  0.0000000    0.00000       Uiso       1.00
      C102          C  0.5379800  0.2835900  0.0000000    0.00000       Uiso       1.00
      C103          C  0.8041700  0.3844000  0.0000000    0.00000       Uiso       1.00
      C104          C  0.7723900  0.4232800  0.0000000    0.00000       Uiso       1.00
      H105          H  0.9631600  0.5341900  0.0000000    0.00000       Uiso       1.00
      C106          C  0.9809300  0.5214100  0.0000000    0.00000       Uiso       1.00
      O107          O  0.9050900  0.4812700  0.0000000    0.00000       Uiso       1.00
      C108          C  0.8697700  0.4513700  0.0000000    0.00000       Uiso       1.00
      C109          C  0.8383700  0.4546900  0.0000000    0.00000       Uiso       1.00
      C110          C  0.8434400  0.4912300  0.0000000    0.00000       Uiso       1.00
      H111          H  0.8719000  0.5153300  0.0000000    0.00000       Uiso       1.00
      C112          C  0.8117600  0.4937300  0.0000000    0.00000       Uiso       1.00
      H113          H  0.8114100  0.5201100  0.0000000    0.00000       Uiso       1.00
      C114          C  0.7773400  0.4595000  0.0000000    0.00000       Uiso       1.00
      C115          C  0.7456100  0.4620200  0.0000000    0.00000       Uiso       1.00
      C116          C  0.5802300  0.1958300  0.0000000    0.00000       Uiso       1.00
      C117          C  0.6508900  0.2276100  0.0000000    0.00000       Uiso       1.00
      H118          H  0.4289700  0.9631600  0.0000000    0.00000       Uiso       1.00
      C119          C  0.4595200  0.9809300  0.0000000    0.00000       Uiso       1.00
      O120          O  0.4238200  0.9050900  0.0000000    0.00000       Uiso       1.00
      C121          C  0.4184000  0.8697700  0.0000000    0.00000       Uiso       1.00
      C122          C  0.3836800  0.8383700  0.0000000    0.00000       Uiso       1.00
      C123          C  0.3522100  0.8434400  0.0000000    0.00000       Uiso       1.00
      H124          H  0.3565700  0.8719000  0.0000000    0.00000       Uiso       1.00
      C125          C  0.3180300  0.8117600  0.0000000    0.00000       Uiso       1.00
      H126          H  0.2913000  0.8114100  0.0000000    0.00000       Uiso       1.00
      C127          C  0.3178400  0.7773400  0.0000000    0.00000       Uiso       1.00
      C128          C  0.2835900  0.7456100  0.0000000    0.00000       Uiso       1.00
      C129          C  0.3844000  0.5802300  0.0000000    0.00000       Uiso       1.00
      C130          C  0.4232800  0.6508900  0.0000000    0.00000       Uiso       1.00
      H131          H  0.5341900  0.5710300  0.0000000    0.00000       Uiso       1.00
      C132          C  0.5214100  0.5404800  0.0000000    0.00000       Uiso       1.00
      O133          O  0.4812700  0.5761800  0.0000000    0.00000       Uiso       1.00
      C134          C  0.4513700  0.5816000  0.0000000    0.00000       Uiso       1.00
      C135          C  0.4546900  0.6163200  0.0000000    0.00000       Uiso       1.00
      C136          C  0.4912300  0.6477900  0.0000000    0.00000       Uiso       1.00
      H137          H  0.5153300  0.6434300  0.0000000    0.00000       Uiso       1.00
      C138          C  0.4937300  0.6819700  0.0000000    0.00000       Uiso       1.00
      H139          H  0.5201100  0.7087000  0.0000000    0.00000       Uiso       1.00
      C140          C  0.4595000  0.6821600  0.0000000    0.00000       Uiso       1.00
      C141          C  0.4620200  0.7164100  0.0000000    0.00000       Uiso       1.00
      C142          C  0.1958300  0.6156000  0.0000000    0.00000       Uiso       1.00
      C143          C  0.2276100  0.5767200  0.0000000    0.00000       Uiso       1.00
      H144          H  0.0368400  0.4658100  0.0000000    0.00000       Uiso       1.00
      C145          C  0.0190700  0.4785900  0.0000000    0.00000       Uiso       1.00
      O146          O  0.0949100  0.5187300  0.0000000    0.00000       Uiso       1.00
      C147          C  0.1302300  0.5486300  0.0000000    0.00000       Uiso       1.00
      C148          C  0.1616300  0.5453100  0.0000000    0.00000       Uiso       1.00
      C149          C  0.1565600  0.5087700  0.0000000    0.00000       Uiso       1.00
      H150          H  0.1281000  0.4846700  0.0000000    0.00000       Uiso       1.00
      C151          C  0.1882400  0.5062700  0.0000000    0.00000       Uiso       1.00
      H152          H  0.1885900  0.4798900  0.0000000    0.00000       Uiso       1.00
      C153          C  0.2226600  0.5405000  0.0000000    0.00000       Uiso       1.00
      C154          C  0.2543900  0.5379800  0.0000000    0.00000       Uiso       1.00
      C155          C  0.4197700  0.8041700  0.0000000    0.00000       Uiso       1.00
      C156          C  0.3491100  0.7723900  0.0000000    0.00000       Uiso       1.00
      C157          C  0.0349700  0.5174850  0.0000000    0.00000       Uiso       1.00
      B158          B  0.0750300  0.5375150  0.0000000    0.00000       Uiso       1.00
      C159          C  0.4825150  0.5174850  0.0000000    0.00000       Uiso       1.00
      B160          B  0.4624850  0.5375150  0.0000000    0.00000       Uiso       1.00
      C161          C  0.4825150  0.9650301  0.0000000    0.00000       Uiso       1.00
      B162          B  0.4624850  0.9249700  0.0000000    0.00000       Uiso       1.00
      C163          C  0.9650300  0.4825150  0.0000000    0.00000       Uiso       1.00
      B164          B  0.9249700  0.4624850  0.0000000    0.00000       Uiso       1.00
      C165          C  0.5174850  0.4825150  0.0000000    0.00000       Uiso       1.00
      B166          B  0.5375150  0.4624850  0.0000000    0.00000       Uiso       1.00
      C167          C  0.5174850  0.0349700  0.0000000    0.00000       Uiso       1.00
      B168          B  0.5375150  0.0750300  0.0000000    0.00000       Uiso       1.00
      H169          H  0.3993600  0.6555700  0.0000000    0.00000       Uiso       1.00
      H170          H  0.3444300  0.7437900  0.0000000    0.00000       Uiso       1.00
      H171          H  0.2562100  0.6006400  0.0000000    0.00000       Uiso       1.00
      H172          H  0.6006400  0.3444300  0.0000000    0.00000       Uiso       1.00
      H173          H  0.6555700  0.2562100  0.0000000    0.00000       Uiso       1.00
      H174          H  0.7437900  0.3993600  0.0000000    0.00000       Uiso       1.00
      H175          H  0.6555700  0.3993600  0.0000000    0.00000       Uiso       1.00
      H176          H  0.7437900  0.3444300  0.0000000    0.00000       Uiso       1.00
      H177          H  0.6006400  0.2562100  0.0000000    0.00000       Uiso       1.00
      H178          H  0.3444300  0.6006400  0.0000000    0.00000       Uiso       1.00
      H179          H  0.2562100  0.6555700  0.0000000    0.00000       Uiso       1.00
      H180          H  0.3993600  0.7437900  0.0000000    0.00000       Uiso       1.00
