data_nchem.NPN-1
_audit_creation_date              0000-00-00
_audit_creation_method            'LanYouShi'
_symmetry_space_group_name_H-M    'P1'
_cell_length_a                    13.1545000
_cell_length_b                    13.1545000
_cell_length_c                    7.9818001
_cell_angle_alpha                 90.0000000
_cell_angle_beta                  90.0000000
_cell_angle_gamma                 90.0000000
loop_
_atom_site_label
_atom_site_type_symbol
_atom_site_fract_x
_atom_site_fract_y
_atom_site_fract_z
_atom_site_U_iso_or_equiv
_atom_site_adp_type
_atom_site_occupancy
        C1          C  0.0577000  0.9241000  0.8891000    0.00000       Uiso       1.00
        C2          C  0.1060000  0.9573000  0.7423000    0.00000       Uiso       1.00
        H3          H  0.1024000  0.0275000  0.7152000    0.00000       Uiso       1.00
        C4          C  0.1575000  0.8953999  0.6369000    0.00000       Uiso       1.00
        H5          H  0.1899000  0.9216000  0.5397000    0.00000       Uiso       1.00
        C6          C  0.1619000  0.7903000  0.6754000    0.00000       Uiso       1.00
        C7          C  0.1168000  0.7545000  0.8204000    0.00000       Uiso       1.00
        H8          H  0.1222000  0.6847000  0.8495000    0.00000       Uiso       1.00
        C9          C  0.0640000  0.8205000  0.9228000    0.00000       Uiso       1.00
       H10          H  0.0308000  0.7944000  0.0194000    0.00000       Uiso       1.00
       N11          N  0.2236000  0.7221001  0.5806000    0.00000       Uiso       1.00
       O12          O  0.2752000  0.6549000  0.6575000    0.00000       Uiso       1.00
       C13          C  0.9423000  0.0759000  0.8891000    0.00000       Uiso       1.00
       C14          C  0.8940000  0.0427000  0.7423000    0.00000       Uiso       1.00
       H15          H  0.8976000  0.9725000  0.7152000    0.00000       Uiso       1.00
       C16          C  0.8424999  0.1046000  0.6369000    0.00000       Uiso       1.00
       H17          H  0.8101000  0.0784000  0.5397000    0.00000       Uiso       1.00
       C18          C  0.8381000  0.2097000  0.6754000    0.00000       Uiso       1.00
       C19          C  0.8832000  0.2455000  0.8204000    0.00000       Uiso       1.00
       H20          H  0.8778000  0.3153000  0.8495000    0.00000       Uiso       1.00
       C21          C  0.9360000  0.1795000  0.9228000    0.00000       Uiso       1.00
       H22          H  0.9692000  0.2056000  0.0194000    0.00000       Uiso       1.00
       N23          N  0.7764000  0.2779000  0.5806000    0.00000       Uiso       1.00
       O24          O  0.7248000  0.3451000  0.6575000    0.00000       Uiso       1.00
       C25          C  0.9241000  0.9423000  0.1109000    0.00000       Uiso       1.00
       C26          C  0.9573000  0.8940000  0.2577000    0.00000       Uiso       1.00
       H27          H  0.0275000  0.8976000  0.2848000    0.00000       Uiso       1.00
       C28          C  0.8953999  0.8424999  0.3631000    0.00000       Uiso       1.00
       H29          H  0.9216000  0.8101000  0.4603000    0.00000       Uiso       1.00
       C30          C  0.7903000  0.8381000  0.3246000    0.00000       Uiso       1.00
       C31          C  0.7545000  0.8832000  0.1796000    0.00000       Uiso       1.00
       H32          H  0.6847000  0.8778000  0.1505000    0.00000       Uiso       1.00
       C33          C  0.8205000  0.9360000  0.0772000    0.00000       Uiso       1.00
       H34          H  0.7944000  0.9692000  0.9806000    0.00000       Uiso       1.00
       N35          N  0.7221001  0.7764000  0.4194000    0.00000       Uiso       1.00
       O36          O  0.6549000  0.7248000  0.3425000    0.00000       Uiso       1.00
       C37          C  0.0759000  0.0577000  0.1109000    0.00000       Uiso       1.00
       C38          C  0.0427000  0.1060000  0.2577000    0.00000       Uiso       1.00
       H39          H  0.9725000  0.1024000  0.2848000    0.00000       Uiso       1.00
       C40          C  0.1046000  0.1575000  0.3631000    0.00000       Uiso       1.00
       H41          H  0.0784000  0.1899000  0.4603000    0.00000       Uiso       1.00
       C42          C  0.2097000  0.1619000  0.3246000    0.00000       Uiso       1.00
       C43          C  0.2455000  0.1168000  0.1796000    0.00000       Uiso       1.00
       H44          H  0.3153000  0.1222000  0.1505000    0.00000       Uiso       1.00
       C45          C  0.1795000  0.0640000  0.0772000    0.00000       Uiso       1.00
       H46          H  0.2056000  0.0308000  0.9806000    0.00000       Uiso       1.00
       N47          N  0.2779000  0.2236000  0.4194000    0.00000       Uiso       1.00
       O48          O  0.3451000  0.2752000  0.3425000    0.00000       Uiso       1.00
       C49          C  0.5577000  0.5759000  0.8891000    0.00000       Uiso       1.00
       C50          C  0.6060000  0.5427000  0.7423000    0.00000       Uiso       1.00
       H51          H  0.6024000  0.4725000  0.7152000    0.00000       Uiso       1.00
       C52          C  0.6575000  0.6046000  0.6369000    0.00000       Uiso       1.00
       H53          H  0.6899000  0.5784000  0.5397000    0.00000       Uiso       1.00
       C54          C  0.6619000  0.7097000  0.6754000    0.00000       Uiso       1.00
       C55          C  0.6168000  0.7455000  0.8204000    0.00000       Uiso       1.00
       H56          H  0.6222001  0.8153000  0.8495000    0.00000       Uiso       1.00
       C57          C  0.5640000  0.6795000  0.9228000    0.00000       Uiso       1.00
       H58          H  0.5308000  0.7056000  0.0194000    0.00000       Uiso       1.00
       N59          N  0.7236000  0.7779000  0.5806000    0.00000       Uiso       1.00
       O60          O  0.7752000  0.8451000  0.6575000    0.00000       Uiso       1.00
       C61          C  0.4423000  0.4241000  0.8891000    0.00000       Uiso       1.00
       C62          C  0.3940000  0.4573000  0.7423000    0.00000       Uiso       1.00
       H63          H  0.3976000  0.5275000  0.7152000    0.00000       Uiso       1.00
       C64          C  0.3425000  0.3954000  0.6369000    0.00000       Uiso       1.00
       H65          H  0.3101000  0.4216000  0.5397000    0.00000       Uiso       1.00
       C66          C  0.3381000  0.2903000  0.6754000    0.00000       Uiso       1.00
       C67          C  0.3832000  0.2545000  0.8204000    0.00000       Uiso       1.00
       H68          H  0.3778000  0.1847000  0.8495000    0.00000       Uiso       1.00
       C69          C  0.4360000  0.3205000  0.9228000    0.00000       Uiso       1.00
       H70          H  0.4692000  0.2944000  0.0194000    0.00000       Uiso       1.00
       N71          N  0.2764000  0.2221000  0.5806000    0.00000       Uiso       1.00
       O72          O  0.2248000  0.1549000  0.6575000    0.00000       Uiso       1.00
       C73          C  0.4241000  0.5577000  0.1109000    0.00000       Uiso       1.00
       C74          C  0.4573000  0.6060000  0.2577000    0.00000       Uiso       1.00
       H75          H  0.5275000  0.6024000  0.2848000    0.00000       Uiso       1.00
       C76          C  0.3954000  0.6575000  0.3631000    0.00000       Uiso       1.00
       H77          H  0.4216000  0.6899000  0.4603000    0.00000       Uiso       1.00
       C78          C  0.2903000  0.6619000  0.3246000    0.00000       Uiso       1.00
       C79          C  0.2545000  0.6168000  0.1796000    0.00000       Uiso       1.00
       H80          H  0.1847000  0.6222001  0.1505000    0.00000       Uiso       1.00
       C81          C  0.3205000  0.5640000  0.0772000    0.00000       Uiso       1.00
       H82          H  0.2944000  0.5308000  0.9806000    0.00000       Uiso       1.00
       N83          N  0.2221000  0.7236000  0.4194000    0.00000       Uiso       1.00
       O84          O  0.1549000  0.7752000  0.3425000    0.00000       Uiso       1.00
       C85          C  0.5759000  0.4423000  0.1109000    0.00000       Uiso       1.00
       C86          C  0.5427000  0.3940000  0.2577000    0.00000       Uiso       1.00
       H87          H  0.4725000  0.3976000  0.2848000    0.00000       Uiso       1.00
       C88          C  0.6046000  0.3425000  0.3631000    0.00000       Uiso       1.00
       H89          H  0.5784000  0.3101000  0.4603000    0.00000       Uiso       1.00
       C90          C  0.7097000  0.3381000  0.3246000    0.00000       Uiso       1.00
       C91          C  0.7455000  0.3832000  0.1796000    0.00000       Uiso       1.00
       H92          H  0.8153000  0.3778000  0.1505000    0.00000       Uiso       1.00
       C93          C  0.6795000  0.4360000  0.0772000    0.00000       Uiso       1.00
       H94          H  0.7056000  0.4692000  0.9806000    0.00000       Uiso       1.00
       N95          N  0.7779000  0.2764000  0.4194000    0.00000       Uiso       1.00
       O96          O  0.8451000  0.2248000  0.3425000    0.00000       Uiso       1.00
       C97          C  0.0000000  0.0000000  0.0000000    0.00000       Uiso       1.00
       C98          C  0.5000000  0.5000000  0.0000000    0.00000       Uiso       1.00
