data_nchem.NPN-2
_audit_creation_date              0000-00-00
_audit_creation_method            'LanYouShi'
_symmetry_space_group_name_H-M    'P1'
_cell_length_a                    13.4209995
_cell_length_b                    13.4209995
_cell_length_c                    8.5279999
_cell_angle_alpha                 90.0000000
_cell_angle_beta                  90.0000000
_cell_angle_gamma                 90.0000000
loop_
_atom_site_label
_atom_site_type_symbol
_atom_site_fract_x
_atom_site_fract_y
_atom_site_fract_z
_atom_site_U_iso_or_equiv
_atom_site_adp_type
_atom_site_occupancy
        C1          C  0.9346000  0.9114000  0.8720000    0.00000       Uiso       1.00
        C2          C  0.8881000  0.9477000  0.7352000    0.00000       Uiso       1.00
        H3          H  0.8896000  0.0168000  0.7113000    0.00000       Uiso       1.00
        C4          C  0.8392000  0.8802000  0.6342000    0.00000       Uiso       1.00
        H5          H  0.8081000  0.9032000  0.5409000    0.00000       Uiso       1.00
        C6          C  0.8373000  0.7823000  0.6721000    0.00000       Uiso       1.00
        C7          C  0.8773000  0.7451000  0.8084000    0.00000       Uiso       1.00
        H8          H  0.8715000  0.6766000  0.8353000    0.00000       Uiso       1.00
        C9          C  0.9264000  0.8119000  0.9042000    0.00000       Uiso       1.00
       H10          H  0.9562000  0.7873999  0.9976000    0.00000       Uiso       1.00
       N11          N  0.7813001  0.7118000  0.5777000    0.00000       Uiso       1.00
       O12          O  0.7326000  0.6462001  0.6429000    0.00000       Uiso       1.00
       C13          C  0.0654000  0.0886000  0.8720000    0.00000       Uiso       1.00
       C14          C  0.1119000  0.0523000  0.7352000    0.00000       Uiso       1.00
       H15          H  0.1104000  0.9832000  0.7113000    0.00000       Uiso       1.00
       C16          C  0.1608000  0.1198000  0.6342000    0.00000       Uiso       1.00
       H17          H  0.1919000  0.0968000  0.5409000    0.00000       Uiso       1.00
       C18          C  0.1627000  0.2177000  0.6721000    0.00000       Uiso       1.00
       C19          C  0.1227000  0.2549000  0.8084000    0.00000       Uiso       1.00
       H20          H  0.1285000  0.3234000  0.8353000    0.00000       Uiso       1.00
       C21          C  0.0736000  0.1881000  0.9042000    0.00000       Uiso       1.00
       H22          H  0.0438000  0.2126000  0.9976000    0.00000       Uiso       1.00
       N23          N  0.2187000  0.2882000  0.5777000    0.00000       Uiso       1.00
       O24          O  0.2674000  0.3538000  0.6429000    0.00000       Uiso       1.00
       C25          C  0.9114000  0.0654000  0.1280000    0.00000       Uiso       1.00
       C26          C  0.9477000  0.1119000  0.2648000    0.00000       Uiso       1.00
       H27          H  0.0168000  0.1104000  0.2887000    0.00000       Uiso       1.00
       C28          C  0.8802000  0.1608000  0.3658000    0.00000       Uiso       1.00
       H29          H  0.9032000  0.1919000  0.4591000    0.00000       Uiso       1.00
       C30          C  0.7823000  0.1627000  0.3279000    0.00000       Uiso       1.00
       C31          C  0.7451000  0.1227000  0.1916000    0.00000       Uiso       1.00
       H32          H  0.6766000  0.1285000  0.1647000    0.00000       Uiso       1.00
       C33          C  0.8119000  0.0736000  0.0958000    0.00000       Uiso       1.00
       H34          H  0.7873999  0.0438000  0.0024000    0.00000       Uiso       1.00
       N35          N  0.7118000  0.2187000  0.4223000    0.00000       Uiso       1.00
       O36          O  0.6462001  0.2674000  0.3571000    0.00000       Uiso       1.00
       C37          C  0.0886000  0.9346000  0.1280000    0.00000       Uiso       1.00
       C38          C  0.0523000  0.8881000  0.2648000    0.00000       Uiso       1.00
       H39          H  0.9832000  0.8896000  0.2887000    0.00000       Uiso       1.00
       C40          C  0.1198000  0.8392000  0.3658000    0.00000       Uiso       1.00
       H41          H  0.0968000  0.8081000  0.4591000    0.00000       Uiso       1.00
       C42          C  0.2177000  0.8373000  0.3279000    0.00000       Uiso       1.00
       C43          C  0.2549000  0.8773000  0.1916000    0.00000       Uiso       1.00
       H44          H  0.3234000  0.8715000  0.1647000    0.00000       Uiso       1.00
       C45          C  0.1881000  0.9264000  0.0958000    0.00000       Uiso       1.00
       H46          H  0.2126000  0.9562000  0.0024000    0.00000       Uiso       1.00
       N47          N  0.2882000  0.7813001  0.4223000    0.00000       Uiso       1.00
       O48          O  0.3538000  0.7326000  0.3571000    0.00000       Uiso       1.00
       C49          C  0.4346000  0.5886000  0.8720000    0.00000       Uiso       1.00
       C50          C  0.3881000  0.5523000  0.7352000    0.00000       Uiso       1.00
       H51          H  0.3896000  0.4832000  0.7113000    0.00000       Uiso       1.00
       C52          C  0.3392000  0.6198000  0.6342000    0.00000       Uiso       1.00
       H53          H  0.3081000  0.5968000  0.5409000    0.00000       Uiso       1.00
       C54          C  0.3373000  0.7177000  0.6721000    0.00000       Uiso       1.00
       C55          C  0.3773000  0.7549000  0.8084000    0.00000       Uiso       1.00
       H56          H  0.3715000  0.8234000  0.8353000    0.00000       Uiso       1.00
       C57          C  0.4264000  0.6881000  0.9042000    0.00000       Uiso       1.00
       H58          H  0.4562000  0.7126001  0.9976000    0.00000       Uiso       1.00
       N59          N  0.2813000  0.7882000  0.5777000    0.00000       Uiso       1.00
       O60          O  0.2326000  0.8537999  0.6429000    0.00000       Uiso       1.00
       C61          C  0.5654000  0.4114000  0.8720000    0.00000       Uiso       1.00
       C62          C  0.6119000  0.4477000  0.7352000    0.00000       Uiso       1.00
       H63          H  0.6104000  0.5168000  0.7113000    0.00000       Uiso       1.00
       C64          C  0.6608000  0.3802000  0.6342000    0.00000       Uiso       1.00
       H65          H  0.6919000  0.4032000  0.5409000    0.00000       Uiso       1.00
       C66          C  0.6627000  0.2823000  0.6721000    0.00000       Uiso       1.00
       C67          C  0.6227000  0.2451000  0.8084000    0.00000       Uiso       1.00
       H68          H  0.6285000  0.1766000  0.8353000    0.00000       Uiso       1.00
       C69          C  0.5736000  0.3119000  0.9042000    0.00000       Uiso       1.00
       H70          H  0.5438000  0.2874000  0.9976000    0.00000       Uiso       1.00
       N71          N  0.7186999  0.2118000  0.5777000    0.00000       Uiso       1.00
       O72          O  0.7674000  0.1462000  0.6429000    0.00000       Uiso       1.00
       C73          C  0.4114000  0.4346000  0.1280000    0.00000       Uiso       1.00
       C74          C  0.4477000  0.3881000  0.2648000    0.00000       Uiso       1.00
       H75          H  0.5168000  0.3896000  0.2887000    0.00000       Uiso       1.00
       C76          C  0.3802000  0.3392000  0.3658000    0.00000       Uiso       1.00
       H77          H  0.4032000  0.3081000  0.4591000    0.00000       Uiso       1.00
       C78          C  0.2823000  0.3373000  0.3279000    0.00000       Uiso       1.00
       C79          C  0.2451000  0.3773000  0.1916000    0.00000       Uiso       1.00
       H80          H  0.1766000  0.3715000  0.1647000    0.00000       Uiso       1.00
       C81          C  0.3119000  0.4264000  0.0958000    0.00000       Uiso       1.00
       H82          H  0.2874000  0.4562000  0.0024000    0.00000       Uiso       1.00
       N83          N  0.2118000  0.2813000  0.4223000    0.00000       Uiso       1.00
       O84          O  0.1462000  0.2326000  0.3571000    0.00000       Uiso       1.00
       C85          C  0.5886000  0.5654000  0.1280000    0.00000       Uiso       1.00
       C86          C  0.5523000  0.6119000  0.2648000    0.00000       Uiso       1.00
       H87          H  0.4832000  0.6104000  0.2887000    0.00000       Uiso       1.00
       C88          C  0.6198000  0.6608000  0.3658000    0.00000       Uiso       1.00
       H89          H  0.5968000  0.6919000  0.4591000    0.00000       Uiso       1.00
       C90          C  0.7177000  0.6627000  0.3279000    0.00000       Uiso       1.00
       C91          C  0.7549000  0.6227000  0.1916000    0.00000       Uiso       1.00
       H92          H  0.8234000  0.6285000  0.1647000    0.00000       Uiso       1.00
       C93          C  0.6881000  0.5736000  0.0958000    0.00000       Uiso       1.00
       H94          H  0.7126001  0.5438000  0.0024000    0.00000       Uiso       1.00
       N95          N  0.7882000  0.7186999  0.4223000    0.00000       Uiso       1.00
       O96          O  0.8537999  0.7674000  0.3571000    0.00000       Uiso       1.00
      Si97         Si  0.0000000  0.0000000  0.0000000    0.00000       Uiso       1.00
      Si98         Si  0.5000000  0.5000000  0.0000000    0.00000       Uiso       1.00
