data_Ni-DBA-3D-COF-ctn
_audit_creation_date              0000-00-00
_audit_creation_method            'LanYouShi'
_symmetry_space_group_name_H-M    'P1'
_cell_length_a                    48.3019981
_cell_length_b                    48.3019981
_cell_length_c                    48.3019981
_cell_angle_alpha                 90.0000000
_cell_angle_beta                  90.0000000
_cell_angle_gamma                 90.0000000
loop_
_atom_site_label
_atom_site_type_symbol
_atom_site_fract_x
_atom_site_fract_y
_atom_site_fract_z
_atom_site_U_iso_or_equiv
_atom_site_adp_type
_atom_site_occupancy
        C1          C  0.3750000  0.0000000  0.2500000    0.00000       Uiso       1.00
        C2          C  0.1250000  0.0000000  0.7500000    0.00000       Uiso       1.00
        C3          C  0.6250000  0.5000000  0.2500000    0.00000       Uiso       1.00
        C4          C  0.8750000  0.5000000  0.7500000    0.00000       Uiso       1.00
        C5          C  0.2500000  0.3750000  0.0000000    0.00000       Uiso       1.00
        C6          C  0.7500000  0.1250000  0.0000000    0.00000       Uiso       1.00
        C7          C  0.2500000  0.6250000  0.5000000    0.00000       Uiso       1.00
        C8          C  0.7500000  0.8750000  0.5000000    0.00000       Uiso       1.00
        C9          C  0.0000000  0.2500000  0.3750000    0.00000       Uiso       1.00
       C10          C  0.0000000  0.7500000  0.1250000    0.00000       Uiso       1.00
       C11          C  0.5000000  0.2500000  0.6250000    0.00000       Uiso       1.00
       C12          C  0.5000000  0.7500000  0.8750000    0.00000       Uiso       1.00
       C13          C  0.3532970  0.0381220  0.2181810    0.00000       Uiso       1.00
       C14          C  0.8532970  0.5381220  0.7181810    0.00000       Uiso       1.00
       C15          C  0.1467030  0.9618780  0.7181810    0.00000       Uiso       1.00
       C16          C  0.6467030  0.4618780  0.2181810    0.00000       Uiso       1.00
       C17          C  0.6467030  0.5381220  0.2818190    0.00000       Uiso       1.00
       C18          C  0.1467030  0.0381220  0.7818190    0.00000       Uiso       1.00
       C19          C  0.8532970  0.4618780  0.7818190    0.00000       Uiso       1.00
       C20          C  0.3532970  0.9618780  0.2818190    0.00000       Uiso       1.00
       C21          C  0.2181810  0.3532970  0.0381220    0.00000       Uiso       1.00
       C22          C  0.7181810  0.8532970  0.5381220    0.00000       Uiso       1.00
       C23          C  0.7181810  0.1467030  0.9618780    0.00000       Uiso       1.00
       C24          C  0.2181810  0.6467030  0.4618780    0.00000       Uiso       1.00
       C25          C  0.2818190  0.6467030  0.5381220    0.00000       Uiso       1.00
       C26          C  0.7818190  0.1467030  0.0381220    0.00000       Uiso       1.00
       C27          C  0.7818190  0.8532970  0.4618780    0.00000       Uiso       1.00
       C28          C  0.2818190  0.3532970  0.9618780    0.00000       Uiso       1.00
       C29          C  0.0381220  0.2181810  0.3532970    0.00000       Uiso       1.00
       C30          C  0.5381220  0.7181810  0.8532970    0.00000       Uiso       1.00
       C31          C  0.9618780  0.7181810  0.1467030    0.00000       Uiso       1.00
       C32          C  0.4618780  0.2181810  0.6467030    0.00000       Uiso       1.00
       C33          C  0.5381220  0.2818190  0.6467030    0.00000       Uiso       1.00
       C34          C  0.0381220  0.7818190  0.1467030    0.00000       Uiso       1.00
       C35          C  0.4618780  0.7818190  0.8532970    0.00000       Uiso       1.00
       C36          C  0.9618780  0.2818190  0.3532970    0.00000       Uiso       1.00
       C37          C  0.2881220  0.6032970  0.4681810    0.00000       Uiso       1.00
       C38          C  0.7881220  0.1032970  0.9681810    0.00000       Uiso       1.00
       C39          C  0.2118780  0.3967030  0.9681810    0.00000       Uiso       1.00
       C40          C  0.7118779  0.8967030  0.4681810    0.00000       Uiso       1.00
       C41          C  0.7881220  0.8967030  0.5318190    0.00000       Uiso       1.00
       C42          C  0.2881220  0.3967030  0.0318190    0.00000       Uiso       1.00
       C43          C  0.7118779  0.1032970  0.0318190    0.00000       Uiso       1.00
       C44          C  0.2118780  0.6032970  0.5318190    0.00000       Uiso       1.00
       C45          C  0.6032970  0.4681810  0.2881220    0.00000       Uiso       1.00
       C46          C  0.1032970  0.9681810  0.7881220    0.00000       Uiso       1.00
       C47          C  0.3967030  0.9681810  0.2118780    0.00000       Uiso       1.00
       C48          C  0.8967030  0.4681810  0.7118779    0.00000       Uiso       1.00
       C49          C  0.8967030  0.5318190  0.7881220    0.00000       Uiso       1.00
       C50          C  0.3967030  0.0318190  0.2881220    0.00000       Uiso       1.00
       C51          C  0.1032970  0.0318190  0.7118779    0.00000       Uiso       1.00
       C52          C  0.6032970  0.5318190  0.2118780    0.00000       Uiso       1.00
       C53          C  0.4681810  0.2881220  0.6032970    0.00000       Uiso       1.00
       C54          C  0.9681810  0.7881220  0.1032970    0.00000       Uiso       1.00
       C55          C  0.9681810  0.2118780  0.3967030    0.00000       Uiso       1.00
       C56          C  0.4681810  0.7118779  0.8967030    0.00000       Uiso       1.00
       C57          C  0.5318190  0.7881220  0.8967030    0.00000       Uiso       1.00
       C58          C  0.0318190  0.2881220  0.3967030    0.00000       Uiso       1.00
       C59          C  0.0318190  0.7118779  0.1032970    0.00000       Uiso       1.00
       C60          C  0.5318190  0.2118780  0.6032970    0.00000       Uiso       1.00
       C61          C  0.3550030  0.0240520  0.2440060    0.00000       Uiso       1.00
       C62          C  0.8550031  0.5240520  0.7440059    0.00000       Uiso       1.00
       C63          C  0.1449970  0.9759480  0.7440059    0.00000       Uiso       1.00
       C64          C  0.6449970  0.4759480  0.2440060    0.00000       Uiso       1.00
       C65          C  0.6449970  0.5240520  0.2559940    0.00000       Uiso       1.00
       C66          C  0.1449970  0.0240520  0.7559940    0.00000       Uiso       1.00
       C67          C  0.8550031  0.4759480  0.7559940    0.00000       Uiso       1.00
       C68          C  0.3550030  0.9759480  0.2559940    0.00000       Uiso       1.00
       C69          C  0.2440060  0.3550030  0.0240520    0.00000       Uiso       1.00
       C70          C  0.7440059  0.8550031  0.5240520    0.00000       Uiso       1.00
       C71          C  0.7440059  0.1449970  0.9759480    0.00000       Uiso       1.00
       C72          C  0.2440060  0.6449970  0.4759480    0.00000       Uiso       1.00
       C73          C  0.2559940  0.6449970  0.5240520    0.00000       Uiso       1.00
       C74          C  0.7559940  0.1449970  0.0240520    0.00000       Uiso       1.00
       C75          C  0.7559940  0.8550031  0.4759480    0.00000       Uiso       1.00
       C76          C  0.2559940  0.3550030  0.9759480    0.00000       Uiso       1.00
       C77          C  0.0240520  0.2440060  0.3550030    0.00000       Uiso       1.00
       C78          C  0.5240520  0.7440059  0.8550031    0.00000       Uiso       1.00
       C79          C  0.9759480  0.7440059  0.1449970    0.00000       Uiso       1.00
       C80          C  0.4759480  0.2440060  0.6449970    0.00000       Uiso       1.00
       C81          C  0.5240520  0.2559940  0.6449970    0.00000       Uiso       1.00
       C82          C  0.0240520  0.7559940  0.1449970    0.00000       Uiso       1.00
       C83          C  0.4759480  0.7559940  0.8550031    0.00000       Uiso       1.00
       C84          C  0.9759480  0.2559940  0.3550030    0.00000       Uiso       1.00
       C85          C  0.2740520  0.6050030  0.4940060    0.00000       Uiso       1.00
       C86          C  0.7740520  0.1050030  0.9940060    0.00000       Uiso       1.00
       C87          C  0.2259480  0.3949970  0.9940060    0.00000       Uiso       1.00
       C88          C  0.7259480  0.8949970  0.4940060    0.00000       Uiso       1.00
       C89          C  0.7740520  0.8949970  0.5059940    0.00000       Uiso       1.00
       C90          C  0.2740520  0.3949970  0.0059940    0.00000       Uiso       1.00
       C91          C  0.7259480  0.1050030  0.0059940    0.00000       Uiso       1.00
       C92          C  0.2259480  0.6050030  0.5059940    0.00000       Uiso       1.00
       C93          C  0.6050030  0.4940060  0.2740520    0.00000       Uiso       1.00
       C94          C  0.1050030  0.9940060  0.7740520    0.00000       Uiso       1.00
       C95          C  0.3949970  0.9940060  0.2259480    0.00000       Uiso       1.00
       C96          C  0.8949970  0.4940060  0.7259480    0.00000       Uiso       1.00
       C97          C  0.8949970  0.5059940  0.7740520    0.00000       Uiso       1.00
       C98          C  0.3949970  0.0059940  0.2740520    0.00000       Uiso       1.00
       C99          C  0.1050030  0.0059940  0.7259480    0.00000       Uiso       1.00
      C100          C  0.6050030  0.5059940  0.2259480    0.00000       Uiso       1.00
      C101          C  0.4940060  0.2740520  0.6050030    0.00000       Uiso       1.00
      C102          C  0.9940060  0.7740520  0.1050030    0.00000       Uiso       1.00
      C103          C  0.9940060  0.2259480  0.3949970    0.00000       Uiso       1.00
      C104          C  0.4940060  0.7259480  0.8949970    0.00000       Uiso       1.00
      C105          C  0.5059940  0.7740520  0.8949970    0.00000       Uiso       1.00
      C106          C  0.0059940  0.2740520  0.3949970    0.00000       Uiso       1.00
      C107          C  0.0059940  0.7259480  0.1050030    0.00000       Uiso       1.00
      C108          C  0.5059940  0.2259480  0.6050030    0.00000       Uiso       1.00
      C109          C  0.3357200  0.0326960  0.2646000    0.00000       Uiso       1.00
      C110          C  0.8357200  0.5326960  0.7646000    0.00000       Uiso       1.00
      C111          C  0.1642800  0.9673041  0.7646000    0.00000       Uiso       1.00
      C112          C  0.6642800  0.4673040  0.2646000    0.00000       Uiso       1.00
      C113          C  0.6642800  0.5326960  0.2354000    0.00000       Uiso       1.00
      C114          C  0.1642800  0.0326960  0.7354000    0.00000       Uiso       1.00
      C115          C  0.8357200  0.4673040  0.7354000    0.00000       Uiso       1.00
      C116          C  0.3357200  0.9673041  0.2354000    0.00000       Uiso       1.00
      C117          C  0.2646000  0.3357200  0.0326960    0.00000       Uiso       1.00
      C118          C  0.7646000  0.8357200  0.5326960    0.00000       Uiso       1.00
      C119          C  0.7646000  0.1642800  0.9673041    0.00000       Uiso       1.00
      C120          C  0.2646000  0.6642800  0.4673040    0.00000       Uiso       1.00
      C121          C  0.2354000  0.6642800  0.5326960    0.00000       Uiso       1.00
      C122          C  0.7354000  0.1642800  0.0326960    0.00000       Uiso       1.00
      C123          C  0.7354000  0.8357200  0.4673040    0.00000       Uiso       1.00
      C124          C  0.2354000  0.3357200  0.9673041    0.00000       Uiso       1.00
      C125          C  0.0326960  0.2646000  0.3357200    0.00000       Uiso       1.00
      C126          C  0.5326960  0.7646000  0.8357200    0.00000       Uiso       1.00
      C127          C  0.9673041  0.7646000  0.1642800    0.00000       Uiso       1.00
      C128          C  0.4673040  0.2646000  0.6642800    0.00000       Uiso       1.00
      C129          C  0.5326960  0.2354000  0.6642800    0.00000       Uiso       1.00
      C130          C  0.0326960  0.7354000  0.1642800    0.00000       Uiso       1.00
      C131          C  0.4673040  0.7354000  0.8357200    0.00000       Uiso       1.00
      C132          C  0.9673041  0.2354000  0.3357200    0.00000       Uiso       1.00
      C133          C  0.2826960  0.5857200  0.5146000    0.00000       Uiso       1.00
      C134          C  0.7826960  0.0857200  0.0146000    0.00000       Uiso       1.00
      C135          C  0.2173040  0.4142800  0.0146000    0.00000       Uiso       1.00
      C136          C  0.7173040  0.9142801  0.5146000    0.00000       Uiso       1.00
      C137          C  0.7826960  0.9142801  0.4854000    0.00000       Uiso       1.00
      C138          C  0.2826960  0.4142800  0.9854000    0.00000       Uiso       1.00
      C139          C  0.7173040  0.0857200  0.9854000    0.00000       Uiso       1.00
      C140          C  0.2173040  0.5857200  0.4854000    0.00000       Uiso       1.00
      C141          C  0.5857200  0.5146000  0.2826960    0.00000       Uiso       1.00
      C142          C  0.0857200  0.0146000  0.7826960    0.00000       Uiso       1.00
      C143          C  0.4142800  0.0146000  0.2173040    0.00000       Uiso       1.00
      C144          C  0.9142801  0.5146000  0.7173040    0.00000       Uiso       1.00
      C145          C  0.9142801  0.4854000  0.7826960    0.00000       Uiso       1.00
      C146          C  0.4142800  0.9854000  0.2826960    0.00000       Uiso       1.00
      C147          C  0.0857200  0.9854000  0.7173040    0.00000       Uiso       1.00
      C148          C  0.5857200  0.4854000  0.2173040    0.00000       Uiso       1.00
      C149          C  0.5146000  0.2826960  0.5857200    0.00000       Uiso       1.00
      C150          C  0.0146000  0.7826960  0.0857200    0.00000       Uiso       1.00
      C151          C  0.0146000  0.2173040  0.4142800    0.00000       Uiso       1.00
      C152          C  0.5146000  0.7173040  0.9142801    0.00000       Uiso       1.00
      C153          C  0.4854000  0.7826960  0.9142801    0.00000       Uiso       1.00
      C154          C  0.9854000  0.2826960  0.4142800    0.00000       Uiso       1.00
      C155          C  0.9854000  0.7173040  0.0857200    0.00000       Uiso       1.00
      C156          C  0.4854000  0.2173040  0.5857200    0.00000       Uiso       1.00
      C157          C  0.3168880  0.0544980  0.2602080    0.00000       Uiso       1.00
      C158          C  0.8168880  0.5544980  0.7602080    0.00000       Uiso       1.00
      C159          C  0.1831120  0.9455020  0.7602080    0.00000       Uiso       1.00
      C160          C  0.6831120  0.4455020  0.2602080    0.00000       Uiso       1.00
      C161          C  0.6831120  0.5544980  0.2397920    0.00000       Uiso       1.00
      C162          C  0.1831120  0.0544980  0.7397920    0.00000       Uiso       1.00
      C163          C  0.8168880  0.4455020  0.7397920    0.00000       Uiso       1.00
      C164          C  0.3168880  0.9455020  0.2397920    0.00000       Uiso       1.00
      C165          C  0.2602080  0.3168880  0.0544980    0.00000       Uiso       1.00
      C166          C  0.7602080  0.8168880  0.5544980    0.00000       Uiso       1.00
      C167          C  0.7602080  0.1831120  0.9455020    0.00000       Uiso       1.00
      C168          C  0.2602080  0.6831120  0.4455020    0.00000       Uiso       1.00
      C169          C  0.2397920  0.6831120  0.5544980    0.00000       Uiso       1.00
      C170          C  0.7397920  0.1831120  0.0544980    0.00000       Uiso       1.00
      C171          C  0.7397920  0.8168880  0.4455020    0.00000       Uiso       1.00
      C172          C  0.2397920  0.3168880  0.9455020    0.00000       Uiso       1.00
      C173          C  0.0544980  0.2602080  0.3168880    0.00000       Uiso       1.00
      C174          C  0.5544980  0.7602080  0.8168880    0.00000       Uiso       1.00
      C175          C  0.9455020  0.7602080  0.1831120    0.00000       Uiso       1.00
      C176          C  0.4455020  0.2602080  0.6831120    0.00000       Uiso       1.00
      C177          C  0.5544980  0.2397920  0.6831120    0.00000       Uiso       1.00
      C178          C  0.0544980  0.7397920  0.1831120    0.00000       Uiso       1.00
      C179          C  0.4455020  0.7397920  0.8168880    0.00000       Uiso       1.00
      C180          C  0.9455020  0.2397920  0.3168880    0.00000       Uiso       1.00
      C181          C  0.3044980  0.5668880  0.5102080    0.00000       Uiso       1.00
      C182          C  0.8044980  0.0668880  0.0102080    0.00000       Uiso       1.00
      C183          C  0.1955020  0.4331120  0.0102080    0.00000       Uiso       1.00
      C184          C  0.6955020  0.9331120  0.5102080    0.00000       Uiso       1.00
      C185          C  0.8044980  0.9331120  0.4897920    0.00000       Uiso       1.00
      C186          C  0.3044980  0.4331120  0.9897920    0.00000       Uiso       1.00
      C187          C  0.6955020  0.0668880  0.9897920    0.00000       Uiso       1.00
      C188          C  0.1955020  0.5668880  0.4897920    0.00000       Uiso       1.00
      C189          C  0.5668880  0.5102080  0.3044980    0.00000       Uiso       1.00
      C190          C  0.0668880  0.0102080  0.8044980    0.00000       Uiso       1.00
      C191          C  0.4331120  0.0102080  0.1955020    0.00000       Uiso       1.00
      C192          C  0.9331120  0.5102080  0.6955020    0.00000       Uiso       1.00
      C193          C  0.9331120  0.4897920  0.8044980    0.00000       Uiso       1.00
      C194          C  0.4331120  0.9897920  0.3044980    0.00000       Uiso       1.00
      C195          C  0.0668880  0.9897920  0.6955020    0.00000       Uiso       1.00
      C196          C  0.5668880  0.4897920  0.1955020    0.00000       Uiso       1.00
      C197          C  0.5102080  0.3044980  0.5668880    0.00000       Uiso       1.00
      C198          C  0.0102080  0.8044980  0.0668880    0.00000       Uiso       1.00
      C199          C  0.0102080  0.1955020  0.4331120    0.00000       Uiso       1.00
      C200          C  0.5102080  0.6955020  0.9331120    0.00000       Uiso       1.00
      C201          C  0.4897920  0.8044980  0.9331120    0.00000       Uiso       1.00
      C202          C  0.9897920  0.3044980  0.4331120    0.00000       Uiso       1.00
      C203          C  0.9897920  0.6955020  0.0668880    0.00000       Uiso       1.00
      C204          C  0.4897920  0.1955020  0.5668880    0.00000       Uiso       1.00
      C205          C  0.3166000  0.0688330  0.2347890    0.00000       Uiso       1.00
      C206          C  0.8166000  0.5688330  0.7347891    0.00000       Uiso       1.00
      C207          C  0.1834000  0.9311670  0.7347891    0.00000       Uiso       1.00
      C208          C  0.6833999  0.4311670  0.2347890    0.00000       Uiso       1.00
      C209          C  0.6833999  0.5688330  0.2652110    0.00000       Uiso       1.00
      C210          C  0.1834000  0.0688330  0.7652110    0.00000       Uiso       1.00
      C211          C  0.8166000  0.4311670  0.7652110    0.00000       Uiso       1.00
      C212          C  0.3166000  0.9311670  0.2652110    0.00000       Uiso       1.00
      C213          C  0.2347890  0.3166000  0.0688330    0.00000       Uiso       1.00
      C214          C  0.7347891  0.8166000  0.5688330    0.00000       Uiso       1.00
      C215          C  0.7347891  0.1834000  0.9311670    0.00000       Uiso       1.00
      C216          C  0.2347890  0.6833999  0.4311670    0.00000       Uiso       1.00
      C217          C  0.2652110  0.6833999  0.5688330    0.00000       Uiso       1.00
      C218          C  0.7652110  0.1834000  0.0688330    0.00000       Uiso       1.00
      C219          C  0.7652110  0.8166000  0.4311670    0.00000       Uiso       1.00
      C220          C  0.2652110  0.3166000  0.9311670    0.00000       Uiso       1.00
      C221          C  0.0688330  0.2347890  0.3166000    0.00000       Uiso       1.00
      C222          C  0.5688330  0.7347891  0.8166000    0.00000       Uiso       1.00
      C223          C  0.9311670  0.7347891  0.1834000    0.00000       Uiso       1.00
      C224          C  0.4311670  0.2347890  0.6833999    0.00000       Uiso       1.00
      C225          C  0.5688330  0.2652110  0.6833999    0.00000       Uiso       1.00
      C226          C  0.0688330  0.7652110  0.1834000    0.00000       Uiso       1.00
      C227          C  0.4311670  0.7652110  0.8166000    0.00000       Uiso       1.00
      C228          C  0.9311670  0.2652110  0.3166000    0.00000       Uiso       1.00
      C229          C  0.3188330  0.5666000  0.4847890    0.00000       Uiso       1.00
      C230          C  0.8188330  0.0666000  0.9847890    0.00000       Uiso       1.00
      C231          C  0.1811670  0.4334000  0.9847890    0.00000       Uiso       1.00
      C232          C  0.6811669  0.9334000  0.4847890    0.00000       Uiso       1.00
      C233          C  0.8188330  0.9334000  0.5152110    0.00000       Uiso       1.00
      C234          C  0.3188330  0.4334000  0.0152110    0.00000       Uiso       1.00
      C235          C  0.6811669  0.0666000  0.0152110    0.00000       Uiso       1.00
      C236          C  0.1811670  0.5666000  0.5152110    0.00000       Uiso       1.00
      C237          C  0.5666000  0.4847890  0.3188330    0.00000       Uiso       1.00
      C238          C  0.0666000  0.9847890  0.8188330    0.00000       Uiso       1.00
      C239          C  0.4334000  0.9847890  0.1811670    0.00000       Uiso       1.00
      C240          C  0.9334000  0.4847890  0.6811669    0.00000       Uiso       1.00
      C241          C  0.9334000  0.5152110  0.8188330    0.00000       Uiso       1.00
      C242          C  0.4334000  0.0152110  0.3188330    0.00000       Uiso       1.00
      C243          C  0.0666000  0.0152110  0.6811669    0.00000       Uiso       1.00
      C244          C  0.5666000  0.5152110  0.1811670    0.00000       Uiso       1.00
      C245          C  0.4847890  0.3188330  0.5666000    0.00000       Uiso       1.00
      C246          C  0.9847890  0.8188330  0.0666000    0.00000       Uiso       1.00
      C247          C  0.9847890  0.1811670  0.4334000    0.00000       Uiso       1.00
      C248          C  0.4847890  0.6811669  0.9334000    0.00000       Uiso       1.00
      C249          C  0.5152110  0.8188330  0.9334000    0.00000       Uiso       1.00
      C250          C  0.0152110  0.3188330  0.4334000    0.00000       Uiso       1.00
      C251          C  0.0152110  0.6811669  0.0666000    0.00000       Uiso       1.00
      C252          C  0.5152110  0.1811670  0.5666000    0.00000       Uiso       1.00
      C253          C  0.3349660  0.0603230  0.2137730    0.00000       Uiso       1.00
      C254          C  0.8349661  0.5603230  0.7137730    0.00000       Uiso       1.00
      C255          C  0.1650340  0.9396769  0.7137730    0.00000       Uiso       1.00
      C256          C  0.6650340  0.4396770  0.2137730    0.00000       Uiso       1.00
      C257          C  0.6650340  0.5603230  0.2862270    0.00000       Uiso       1.00
      C258          C  0.1650340  0.0603230  0.7862270    0.00000       Uiso       1.00
      C259          C  0.8349661  0.4396770  0.7862270    0.00000       Uiso       1.00
      C260          C  0.3349660  0.9396769  0.2862270    0.00000       Uiso       1.00
      C261          C  0.2137730  0.3349660  0.0603230    0.00000       Uiso       1.00
      C262          C  0.7137730  0.8349661  0.5603230    0.00000       Uiso       1.00
      C263          C  0.7137730  0.1650340  0.9396769    0.00000       Uiso       1.00
      C264          C  0.2137730  0.6650340  0.4396770    0.00000       Uiso       1.00
      C265          C  0.2862270  0.6650340  0.5603230    0.00000       Uiso       1.00
      C266          C  0.7862270  0.1650340  0.0603230    0.00000       Uiso       1.00
      C267          C  0.7862270  0.8349661  0.4396770    0.00000       Uiso       1.00
      C268          C  0.2862270  0.3349660  0.9396769    0.00000       Uiso       1.00
      C269          C  0.0603230  0.2137730  0.3349660    0.00000       Uiso       1.00
      C270          C  0.5603230  0.7137730  0.8349661    0.00000       Uiso       1.00
      C271          C  0.9396769  0.7137730  0.1650340    0.00000       Uiso       1.00
      C272          C  0.4396770  0.2137730  0.6650340    0.00000       Uiso       1.00
      C273          C  0.5603230  0.2862270  0.6650340    0.00000       Uiso       1.00
      C274          C  0.0603230  0.7862270  0.1650340    0.00000       Uiso       1.00
      C275          C  0.4396770  0.7862270  0.8349661    0.00000       Uiso       1.00
      C276          C  0.9396769  0.2862270  0.3349660    0.00000       Uiso       1.00
      C277          C  0.3103230  0.5849660  0.4637730    0.00000       Uiso       1.00
      C278          C  0.8103230  0.0849660  0.9637730    0.00000       Uiso       1.00
      C279          C  0.1896770  0.4150340  0.9637730    0.00000       Uiso       1.00
      C280          C  0.6896770  0.9150340  0.4637730    0.00000       Uiso       1.00
      C281          C  0.8103230  0.9150340  0.5362270    0.00000       Uiso       1.00
      C282          C  0.3103230  0.4150340  0.0362270    0.00000       Uiso       1.00
      C283          C  0.6896770  0.0849660  0.0362270    0.00000       Uiso       1.00
      C284          C  0.1896770  0.5849660  0.5362270    0.00000       Uiso       1.00
      C285          C  0.5849660  0.4637730  0.3103230    0.00000       Uiso       1.00
      C286          C  0.0849660  0.9637730  0.8103230    0.00000       Uiso       1.00
      C287          C  0.4150340  0.9637730  0.1896770    0.00000       Uiso       1.00
      C288          C  0.9150340  0.4637730  0.6896770    0.00000       Uiso       1.00
      C289          C  0.9150340  0.5362270  0.8103230    0.00000       Uiso       1.00
      C290          C  0.4150340  0.0362270  0.3103230    0.00000       Uiso       1.00
      C291          C  0.0849660  0.0362270  0.6896770    0.00000       Uiso       1.00
      C292          C  0.5849660  0.5362270  0.1896770    0.00000       Uiso       1.00
      C293          C  0.4637730  0.3103230  0.5849660    0.00000       Uiso       1.00
      C294          C  0.9637730  0.8103230  0.0849660    0.00000       Uiso       1.00
      C295          C  0.9637730  0.1896770  0.4150340    0.00000       Uiso       1.00
      C296          C  0.4637730  0.6896770  0.9150340    0.00000       Uiso       1.00
      C297          C  0.5362270  0.8103230  0.9150340    0.00000       Uiso       1.00
      C298          C  0.0362270  0.3103230  0.4150340    0.00000       Uiso       1.00
      C299          C  0.0362270  0.6896770  0.0849660    0.00000       Uiso       1.00
      C300          C  0.5362270  0.1896770  0.5849660    0.00000       Uiso       1.00
      H301          H  0.3652560  0.0323650  0.2017720    0.00000       Uiso       1.00
      H302          H  0.8652560  0.5323650  0.7017720    0.00000       Uiso       1.00
      H303          H  0.1347440  0.9676350  0.7017720    0.00000       Uiso       1.00
      H304          H  0.6347440  0.4676350  0.2017720    0.00000       Uiso       1.00
      H305          H  0.6347440  0.5323650  0.2982280    0.00000       Uiso       1.00
      H306          H  0.1347440  0.0323650  0.7982280    0.00000       Uiso       1.00
      H307          H  0.8652560  0.4676350  0.7982280    0.00000       Uiso       1.00
      H308          H  0.3652560  0.9676350  0.2982280    0.00000       Uiso       1.00
      H309          H  0.2017720  0.3652560  0.0323650    0.00000       Uiso       1.00
      H310          H  0.7017720  0.8652560  0.5323650    0.00000       Uiso       1.00
      H311          H  0.7017720  0.1347440  0.9676350    0.00000       Uiso       1.00
      H312          H  0.2017720  0.6347440  0.4676350    0.00000       Uiso       1.00
      H313          H  0.2982280  0.6347440  0.5323650    0.00000       Uiso       1.00
      H314          H  0.7982280  0.1347440  0.0323650    0.00000       Uiso       1.00
      H315          H  0.7982280  0.8652560  0.4676350    0.00000       Uiso       1.00
      H316          H  0.2982280  0.3652560  0.9676350    0.00000       Uiso       1.00
      H317          H  0.0323650  0.2017720  0.3652560    0.00000       Uiso       1.00
      H318          H  0.5323650  0.7017720  0.8652560    0.00000       Uiso       1.00
      H319          H  0.9676350  0.7017720  0.1347440    0.00000       Uiso       1.00
      H320          H  0.4676350  0.2017720  0.6347440    0.00000       Uiso       1.00
      H321          H  0.5323650  0.2982280  0.6347440    0.00000       Uiso       1.00
      H322          H  0.0323650  0.7982280  0.1347440    0.00000       Uiso       1.00
      H323          H  0.4676350  0.7982280  0.8652560    0.00000       Uiso       1.00
      H324          H  0.9676350  0.2982280  0.3652560    0.00000       Uiso       1.00
      H325          H  0.2823650  0.6152560  0.4517720    0.00000       Uiso       1.00
      H326          H  0.7823650  0.1152560  0.9517720    0.00000       Uiso       1.00
      H327          H  0.2176350  0.3847440  0.9517720    0.00000       Uiso       1.00
      H328          H  0.7176350  0.8847440  0.4517720    0.00000       Uiso       1.00
      H329          H  0.7823650  0.8847440  0.5482280    0.00000       Uiso       1.00
      H330          H  0.2823650  0.3847440  0.0482280    0.00000       Uiso       1.00
      H331          H  0.7176350  0.1152560  0.0482280    0.00000       Uiso       1.00
      H332          H  0.2176350  0.6152560  0.5482280    0.00000       Uiso       1.00
      H333          H  0.6152560  0.4517720  0.2823650    0.00000       Uiso       1.00
      H334          H  0.1152560  0.9517720  0.7823650    0.00000       Uiso       1.00
      H335          H  0.3847440  0.9517720  0.2176350    0.00000       Uiso       1.00
      H336          H  0.8847440  0.4517720  0.7176350    0.00000       Uiso       1.00
      H337          H  0.8847440  0.5482280  0.7823650    0.00000       Uiso       1.00
      H338          H  0.3847440  0.0482280  0.2823650    0.00000       Uiso       1.00
      H339          H  0.1152560  0.0482280  0.7176350    0.00000       Uiso       1.00
      H340          H  0.6152560  0.5482280  0.2176350    0.00000       Uiso       1.00
      H341          H  0.4517720  0.2823650  0.6152560    0.00000       Uiso       1.00
      H342          H  0.9517720  0.7823650  0.1152560    0.00000       Uiso       1.00
      H343          H  0.9517720  0.2176350  0.3847440    0.00000       Uiso       1.00
      H344          H  0.4517720  0.7176350  0.8847440    0.00000       Uiso       1.00
      H345          H  0.5482280  0.7823650  0.8847440    0.00000       Uiso       1.00
      H346          H  0.0482280  0.2823650  0.3847440    0.00000       Uiso       1.00
      H347          H  0.0482280  0.7176350  0.1152560    0.00000       Uiso       1.00
      H348          H  0.5482280  0.2176350  0.6152560    0.00000       Uiso       1.00
      H349          H  0.3349430  0.0701650  0.1949490    0.00000       Uiso       1.00
      H350          H  0.8349430  0.5701660  0.6949490    0.00000       Uiso       1.00
      H351          H  0.1650570  0.9298350  0.6949490    0.00000       Uiso       1.00
      H352          H  0.6650580  0.4298350  0.1949490    0.00000       Uiso       1.00
      H353          H  0.6650580  0.5701660  0.3050510    0.00000       Uiso       1.00
      H354          H  0.1650570  0.0701650  0.8050510    0.00000       Uiso       1.00
      H355          H  0.8349430  0.4298350  0.8050510    0.00000       Uiso       1.00
      H356          H  0.3349430  0.9298350  0.3050510    0.00000       Uiso       1.00
      H357          H  0.1949490  0.3349430  0.0701650    0.00000       Uiso       1.00
      H358          H  0.6949490  0.8349430  0.5701660    0.00000       Uiso       1.00
      H359          H  0.6949490  0.1650570  0.9298350    0.00000       Uiso       1.00
      H360          H  0.1949490  0.6650580  0.4298350    0.00000       Uiso       1.00
      H361          H  0.3050510  0.6650580  0.5701660    0.00000       Uiso       1.00
      H362          H  0.8050510  0.1650570  0.0701650    0.00000       Uiso       1.00
      H363          H  0.8050510  0.8349430  0.4298350    0.00000       Uiso       1.00
      H364          H  0.3050510  0.3349430  0.9298350    0.00000       Uiso       1.00
      H365          H  0.0701650  0.1949490  0.3349430    0.00000       Uiso       1.00
      H366          H  0.5701660  0.6949490  0.8349430    0.00000       Uiso       1.00
      H367          H  0.9298350  0.6949490  0.1650570    0.00000       Uiso       1.00
      H368          H  0.4298350  0.1949490  0.6650580    0.00000       Uiso       1.00
      H369          H  0.5701660  0.3050510  0.6650580    0.00000       Uiso       1.00
      H370          H  0.0701650  0.8050510  0.1650570    0.00000       Uiso       1.00
      H371          H  0.4298350  0.8050510  0.8349430    0.00000       Uiso       1.00
      H372          H  0.9298350  0.3050510  0.3349430    0.00000       Uiso       1.00
      H373          H  0.3201650  0.5849430  0.4449490    0.00000       Uiso       1.00
      H374          H  0.8201661  0.0849430  0.9449490    0.00000       Uiso       1.00
      H375          H  0.1798350  0.4150580  0.9449490    0.00000       Uiso       1.00
      H376          H  0.6798350  0.9150580  0.4449490    0.00000       Uiso       1.00
      H377          H  0.8201661  0.9150580  0.5550510    0.00000       Uiso       1.00
      H378          H  0.3201650  0.4150580  0.0550510    0.00000       Uiso       1.00
      H379          H  0.6798350  0.0849430  0.0550510    0.00000       Uiso       1.00
      H380          H  0.1798350  0.5849430  0.5550510    0.00000       Uiso       1.00
      H381          H  0.5849430  0.4449490  0.3201650    0.00000       Uiso       1.00
      H382          H  0.0849430  0.9449490  0.8201661    0.00000       Uiso       1.00
      H383          H  0.4150580  0.9449490  0.1798350    0.00000       Uiso       1.00
      H384          H  0.9150580  0.4449490  0.6798350    0.00000       Uiso       1.00
      H385          H  0.9150580  0.5550510  0.8201661    0.00000       Uiso       1.00
      H386          H  0.4150580  0.0550510  0.3201650    0.00000       Uiso       1.00
      H387          H  0.0849430  0.0550510  0.6798350    0.00000       Uiso       1.00
      H388          H  0.5849430  0.5550510  0.1798350    0.00000       Uiso       1.00
      H389          H  0.4449490  0.3201650  0.5849430    0.00000       Uiso       1.00
      H390          H  0.9449490  0.8201661  0.0849430    0.00000       Uiso       1.00
      H391          H  0.9449490  0.1798350  0.4150580    0.00000       Uiso       1.00
      H392          H  0.4449490  0.6798350  0.9150580    0.00000       Uiso       1.00
      H393          H  0.5550510  0.8201661  0.9150580    0.00000       Uiso       1.00
      H394          H  0.0550510  0.3201650  0.4150580    0.00000       Uiso       1.00
      H395          H  0.0550510  0.6798350  0.0849430    0.00000       Uiso       1.00
      H396          H  0.5550510  0.1798350  0.5849430    0.00000       Uiso       1.00
      H397          H  0.3353330  0.0229270  0.2834060    0.00000       Uiso       1.00
      H398          H  0.8353330  0.5229270  0.7834060    0.00000       Uiso       1.00
      H399          H  0.1646670  0.9770730  0.7834060    0.00000       Uiso       1.00
      H400          H  0.6646670  0.4770730  0.2834060    0.00000       Uiso       1.00
      H401          H  0.6646670  0.5229270  0.2165940    0.00000       Uiso       1.00
      H402          H  0.1646670  0.0229270  0.7165940    0.00000       Uiso       1.00
      H403          H  0.8353330  0.4770730  0.7165940    0.00000       Uiso       1.00
      H404          H  0.3353330  0.9770730  0.2165940    0.00000       Uiso       1.00
      H405          H  0.2834060  0.3353330  0.0229270    0.00000       Uiso       1.00
      H406          H  0.7834060  0.8353330  0.5229270    0.00000       Uiso       1.00
      H407          H  0.7834060  0.1646670  0.9770730    0.00000       Uiso       1.00
      H408          H  0.2834060  0.6646670  0.4770730    0.00000       Uiso       1.00
      H409          H  0.2165940  0.6646670  0.5229270    0.00000       Uiso       1.00
      H410          H  0.7165940  0.1646670  0.0229270    0.00000       Uiso       1.00
      H411          H  0.7165940  0.8353330  0.4770730    0.00000       Uiso       1.00
      H412          H  0.2165940  0.3353330  0.9770730    0.00000       Uiso       1.00
      H413          H  0.0229270  0.2834060  0.3353330    0.00000       Uiso       1.00
      H414          H  0.5229270  0.7834060  0.8353330    0.00000       Uiso       1.00
      H415          H  0.9770730  0.7834060  0.1646670    0.00000       Uiso       1.00
      H416          H  0.4770730  0.2834060  0.6646670    0.00000       Uiso       1.00
      H417          H  0.5229270  0.2165940  0.6646670    0.00000       Uiso       1.00
      H418          H  0.0229270  0.7165940  0.1646670    0.00000       Uiso       1.00
      H419          H  0.4770730  0.7165940  0.8353330    0.00000       Uiso       1.00
      H420          H  0.9770730  0.2165940  0.3353330    0.00000       Uiso       1.00
      H421          H  0.2729270  0.5853330  0.5334060    0.00000       Uiso       1.00
      H422          H  0.7729270  0.0853330  0.0334060    0.00000       Uiso       1.00
      H423          H  0.2270730  0.4146670  0.0334060    0.00000       Uiso       1.00
      H424          H  0.7270730  0.9146670  0.5334060    0.00000       Uiso       1.00
      H425          H  0.7729270  0.9146670  0.4665940    0.00000       Uiso       1.00
      H426          H  0.2729270  0.4146670  0.9665940    0.00000       Uiso       1.00
      H427          H  0.7270730  0.0853330  0.9665940    0.00000       Uiso       1.00
      H428          H  0.2270730  0.5853330  0.4665940    0.00000       Uiso       1.00
      H429          H  0.5853330  0.5334060  0.2729270    0.00000       Uiso       1.00
      H430          H  0.0853330  0.0334060  0.7729270    0.00000       Uiso       1.00
      H431          H  0.4146670  0.0334060  0.2270730    0.00000       Uiso       1.00
      H432          H  0.9146670  0.5334060  0.7270730    0.00000       Uiso       1.00
      H433          H  0.9146670  0.4665940  0.7729270    0.00000       Uiso       1.00
      H434          H  0.4146670  0.9665940  0.2729270    0.00000       Uiso       1.00
      H435          H  0.0853330  0.9665940  0.7270730    0.00000       Uiso       1.00
      H436          H  0.5853330  0.4665940  0.2270730    0.00000       Uiso       1.00
      H437          H  0.5334060  0.2729270  0.5853330    0.00000       Uiso       1.00
      H438          H  0.0334060  0.7729270  0.0853330    0.00000       Uiso       1.00
      H439          H  0.0334060  0.2270730  0.4146670    0.00000       Uiso       1.00
      H440          H  0.5334060  0.7270730  0.9146670    0.00000       Uiso       1.00
      H441          H  0.4665940  0.7729270  0.9146670    0.00000       Uiso       1.00
      H442          H  0.9665940  0.2729270  0.4146670    0.00000       Uiso       1.00
      H443          H  0.9665940  0.7270730  0.0853330    0.00000       Uiso       1.00
      H444          H  0.4665940  0.2270730  0.5853330    0.00000       Uiso       1.00
      H445          H  0.3034640  0.0599630  0.2757240    0.00000       Uiso       1.00
      H446          H  0.8034641  0.5599630  0.7757239    0.00000       Uiso       1.00
      H447          H  0.1965360  0.9400370  0.7757239    0.00000       Uiso       1.00
      H448          H  0.6965360  0.4400370  0.2757240    0.00000       Uiso       1.00
      H449          H  0.6965360  0.5599630  0.2242760    0.00000       Uiso       1.00
      H450          H  0.1965360  0.0599630  0.7242760    0.00000       Uiso       1.00
      H451          H  0.8034641  0.4400370  0.7242760    0.00000       Uiso       1.00
      H452          H  0.3034640  0.9400370  0.2242760    0.00000       Uiso       1.00
      H453          H  0.2757240  0.3034640  0.0599630    0.00000       Uiso       1.00
      H454          H  0.7757239  0.8034641  0.5599630    0.00000       Uiso       1.00
      H455          H  0.7757239  0.1965360  0.9400370    0.00000       Uiso       1.00
      H456          H  0.2757240  0.6965360  0.4400370    0.00000       Uiso       1.00
      H457          H  0.2242760  0.6965360  0.5599630    0.00000       Uiso       1.00
      H458          H  0.7242760  0.1965360  0.0599630    0.00000       Uiso       1.00
      H459          H  0.7242760  0.8034641  0.4400370    0.00000       Uiso       1.00
      H460          H  0.2242760  0.3034640  0.9400370    0.00000       Uiso       1.00
      H461          H  0.0599630  0.2757240  0.3034640    0.00000       Uiso       1.00
      H462          H  0.5599630  0.7757239  0.8034641    0.00000       Uiso       1.00
      H463          H  0.9400370  0.7757239  0.1965360    0.00000       Uiso       1.00
      H464          H  0.4400370  0.2757240  0.6965360    0.00000       Uiso       1.00
      H465          H  0.5599630  0.2242760  0.6965360    0.00000       Uiso       1.00
      H466          H  0.0599630  0.7242760  0.1965360    0.00000       Uiso       1.00
      H467          H  0.4400370  0.7242760  0.8034641    0.00000       Uiso       1.00
      H468          H  0.9400370  0.2242760  0.3034640    0.00000       Uiso       1.00
      H469          H  0.3099630  0.5534640  0.5257240    0.00000       Uiso       1.00
      H470          H  0.8099630  0.0534640  0.0257240    0.00000       Uiso       1.00
      H471          H  0.1900370  0.4465360  0.0257240    0.00000       Uiso       1.00
      H472          H  0.6900370  0.9465360  0.5257240    0.00000       Uiso       1.00
      H473          H  0.8099630  0.9465360  0.4742760    0.00000       Uiso       1.00
      H474          H  0.3099630  0.4465360  0.9742760    0.00000       Uiso       1.00
      H475          H  0.6900370  0.0534640  0.9742760    0.00000       Uiso       1.00
      H476          H  0.1900370  0.5534640  0.4742760    0.00000       Uiso       1.00
      H477          H  0.5534640  0.5257240  0.3099630    0.00000       Uiso       1.00
      H478          H  0.0534640  0.0257240  0.8099630    0.00000       Uiso       1.00
      H479          H  0.4465360  0.0257240  0.1900370    0.00000       Uiso       1.00
      H480          H  0.9465360  0.5257240  0.6900370    0.00000       Uiso       1.00
      H481          H  0.9465360  0.4742760  0.8099630    0.00000       Uiso       1.00
      H482          H  0.4465360  0.9742760  0.3099630    0.00000       Uiso       1.00
      H483          H  0.0534640  0.9742760  0.6900370    0.00000       Uiso       1.00
      H484          H  0.5534640  0.4742760  0.1900370    0.00000       Uiso       1.00
      H485          H  0.5257240  0.3099630  0.5534640    0.00000       Uiso       1.00
      H486          H  0.0257240  0.8099630  0.0534640    0.00000       Uiso       1.00
      H487          H  0.0257240  0.1900370  0.4465360    0.00000       Uiso       1.00
      H488          H  0.5257240  0.6900370  0.9465360    0.00000       Uiso       1.00
      H489          H  0.4742760  0.8099630  0.9465360    0.00000       Uiso       1.00
      H490          H  0.9742760  0.3099630  0.4465360    0.00000       Uiso       1.00
      H491          H  0.9742760  0.6900370  0.0534640    0.00000       Uiso       1.00
      H492          H  0.4742760  0.1900370  0.5534640    0.00000       Uiso       1.00
      C493          C  0.4721100  0.0388880  0.3791230    0.00000       Uiso       1.00
      C494          C  0.9721100  0.5388880  0.8791230    0.00000       Uiso       1.00
      C495          C  0.0278900  0.9611120  0.8791230    0.00000       Uiso       1.00
      C496          C  0.5278900  0.4611120  0.3791230    0.00000       Uiso       1.00
      C497          C  0.5278900  0.5388880  0.1208770    0.00000       Uiso       1.00
      C498          C  0.0278900  0.0388880  0.6208770    0.00000       Uiso       1.00
      C499          C  0.9721100  0.4611120  0.6208770    0.00000       Uiso       1.00
      C500          C  0.4721100  0.9611120  0.1208770    0.00000       Uiso       1.00
      C501          C  0.3791230  0.4721100  0.0388880    0.00000       Uiso       1.00
      C502          C  0.8791230  0.9721100  0.5388880    0.00000       Uiso       1.00
      C503          C  0.8791230  0.0278900  0.9611120    0.00000       Uiso       1.00
      C504          C  0.3791230  0.5278900  0.4611120    0.00000       Uiso       1.00
      C505          C  0.1208770  0.5278900  0.5388880    0.00000       Uiso       1.00
      C506          C  0.6208770  0.0278900  0.0388880    0.00000       Uiso       1.00
      C507          C  0.6208770  0.9721100  0.4611120    0.00000       Uiso       1.00
      C508          C  0.1208770  0.4721100  0.9611120    0.00000       Uiso       1.00
      C509          C  0.0388880  0.3791230  0.4721100    0.00000       Uiso       1.00
      C510          C  0.5388880  0.8791230  0.9721100    0.00000       Uiso       1.00
      C511          C  0.9611120  0.8791230  0.0278900    0.00000       Uiso       1.00
      C512          C  0.4611120  0.3791230  0.5278900    0.00000       Uiso       1.00
      C513          C  0.5388880  0.1208770  0.5278900    0.00000       Uiso       1.00
      C514          C  0.0388880  0.6208770  0.0278900    0.00000       Uiso       1.00
      C515          C  0.4611120  0.6208770  0.9721100    0.00000       Uiso       1.00
      C516          C  0.9611120  0.1208770  0.4721100    0.00000       Uiso       1.00
      C517          C  0.2888880  0.7221100  0.6291230    0.00000       Uiso       1.00
      C518          C  0.7888880  0.2221100  0.1291230    0.00000       Uiso       1.00
      C519          C  0.2111120  0.2778900  0.1291230    0.00000       Uiso       1.00
      C520          C  0.7111121  0.7778900  0.6291230    0.00000       Uiso       1.00
      C521          C  0.7888880  0.7778900  0.3708770    0.00000       Uiso       1.00
      C522          C  0.2888880  0.2778900  0.8708770    0.00000       Uiso       1.00
      C523          C  0.7111121  0.2221100  0.8708770    0.00000       Uiso       1.00
      C524          C  0.2111120  0.7221100  0.3708770    0.00000       Uiso       1.00
      C525          C  0.7221100  0.6291230  0.2888880    0.00000       Uiso       1.00
      C526          C  0.2221100  0.1291230  0.7888880    0.00000       Uiso       1.00
      C527          C  0.2778900  0.1291230  0.2111120    0.00000       Uiso       1.00
      C528          C  0.7778900  0.6291230  0.7111121    0.00000       Uiso       1.00
      C529          C  0.7778900  0.3708770  0.7888880    0.00000       Uiso       1.00
      C530          C  0.2778900  0.8708770  0.2888880    0.00000       Uiso       1.00
      C531          C  0.2221100  0.8708770  0.7111121    0.00000       Uiso       1.00
      C532          C  0.7221100  0.3708770  0.2111120    0.00000       Uiso       1.00
      C533          C  0.6291230  0.2888880  0.7221100    0.00000       Uiso       1.00
      C534          C  0.1291230  0.7888880  0.2221100    0.00000       Uiso       1.00
      C535          C  0.1291230  0.2111120  0.2778900    0.00000       Uiso       1.00
      C536          C  0.6291230  0.7111121  0.7778900    0.00000       Uiso       1.00
      C537          C  0.3708770  0.7888880  0.7778900    0.00000       Uiso       1.00
      C538          C  0.8708770  0.2888880  0.2778900    0.00000       Uiso       1.00
      C539          C  0.8708770  0.7111121  0.2221100    0.00000       Uiso       1.00
      C540          C  0.3708770  0.2111120  0.7221100    0.00000       Uiso       1.00
      C541          C  0.4796060  0.0551490  0.4019170    0.00000       Uiso       1.00
      C542          C  0.9796060  0.5551490  0.9019170    0.00000       Uiso       1.00
      C543          C  0.0203940  0.9448510  0.9019170    0.00000       Uiso       1.00
      C544          C  0.5203940  0.4448510  0.4019170    0.00000       Uiso       1.00
      C545          C  0.5203940  0.5551490  0.0980830    0.00000       Uiso       1.00
      C546          C  0.0203940  0.0551490  0.5980830    0.00000       Uiso       1.00
      C547          C  0.9796060  0.4448510  0.5980830    0.00000       Uiso       1.00
      C548          C  0.4796060  0.9448510  0.0980830    0.00000       Uiso       1.00
      C549          C  0.4019170  0.4796060  0.0551490    0.00000       Uiso       1.00
      C550          C  0.9019170  0.9796060  0.5551490    0.00000       Uiso       1.00
      C551          C  0.9019170  0.0203940  0.9448510    0.00000       Uiso       1.00
      C552          C  0.4019170  0.5203940  0.4448510    0.00000       Uiso       1.00
      C553          C  0.0980830  0.5203940  0.5551490    0.00000       Uiso       1.00
      C554          C  0.5980830  0.0203940  0.0551490    0.00000       Uiso       1.00
      C555          C  0.5980830  0.9796060  0.4448510    0.00000       Uiso       1.00
      C556          C  0.0980830  0.4796060  0.9448510    0.00000       Uiso       1.00
      C557          C  0.0551490  0.4019170  0.4796060    0.00000       Uiso       1.00
      C558          C  0.5551490  0.9019170  0.9796060    0.00000       Uiso       1.00
      C559          C  0.9448510  0.9019170  0.0203940    0.00000       Uiso       1.00
      C560          C  0.4448510  0.4019170  0.5203940    0.00000       Uiso       1.00
      C561          C  0.5551490  0.0980830  0.5203940    0.00000       Uiso       1.00
      C562          C  0.0551490  0.5980830  0.0203940    0.00000       Uiso       1.00
      C563          C  0.4448510  0.5980830  0.9796060    0.00000       Uiso       1.00
      C564          C  0.9448510  0.0980830  0.4796060    0.00000       Uiso       1.00
      C565          C  0.3051490  0.7296059  0.6519170    0.00000       Uiso       1.00
      C566          C  0.8051490  0.2296060  0.1519170    0.00000       Uiso       1.00
      C567          C  0.1948510  0.2703940  0.1519170    0.00000       Uiso       1.00
      C568          C  0.6948510  0.7703940  0.6519170    0.00000       Uiso       1.00
      C569          C  0.8051490  0.7703940  0.3480830    0.00000       Uiso       1.00
      C570          C  0.3051490  0.2703940  0.8480830    0.00000       Uiso       1.00
      C571          C  0.6948510  0.2296060  0.8480830    0.00000       Uiso       1.00
      C572          C  0.1948510  0.7296059  0.3480830    0.00000       Uiso       1.00
      C573          C  0.7296059  0.6519170  0.3051490    0.00000       Uiso       1.00
      C574          C  0.2296060  0.1519170  0.8051490    0.00000       Uiso       1.00
      C575          C  0.2703940  0.1519170  0.1948510    0.00000       Uiso       1.00
      C576          C  0.7703940  0.6519170  0.6948510    0.00000       Uiso       1.00
      C577          C  0.7703940  0.3480830  0.8051490    0.00000       Uiso       1.00
      C578          C  0.2703940  0.8480830  0.3051490    0.00000       Uiso       1.00
      C579          C  0.2296060  0.8480830  0.6948510    0.00000       Uiso       1.00
      C580          C  0.7296059  0.3480830  0.1948510    0.00000       Uiso       1.00
      C581          C  0.6519170  0.3051490  0.7296059    0.00000       Uiso       1.00
      C582          C  0.1519170  0.8051490  0.2296060    0.00000       Uiso       1.00
      C583          C  0.1519170  0.1948510  0.2703940    0.00000       Uiso       1.00
      C584          C  0.6519170  0.6948510  0.7703940    0.00000       Uiso       1.00
      C585          C  0.3480830  0.8051490  0.7703940    0.00000       Uiso       1.00
      C586          C  0.8480830  0.3051490  0.2703940    0.00000       Uiso       1.00
      C587          C  0.8480830  0.6948510  0.2296060    0.00000       Uiso       1.00
      C588          C  0.3480830  0.1948510  0.7296059    0.00000       Uiso       1.00
      C589          C  0.5088050  0.0621930  0.4398580    0.00000       Uiso       1.00
      C590          C  0.0088050  0.5621930  0.9398580    0.00000       Uiso       1.00
      C591          C  0.9911950  0.9378071  0.9398580    0.00000       Uiso       1.00
      C592          C  0.4911950  0.4378070  0.4398580    0.00000       Uiso       1.00
      C593          C  0.4911950  0.5621930  0.0601420    0.00000       Uiso       1.00
      C594          C  0.9911950  0.0621930  0.5601420    0.00000       Uiso       1.00
      C595          C  0.0088050  0.4378070  0.5601420    0.00000       Uiso       1.00
      C596          C  0.5088050  0.9378071  0.0601420    0.00000       Uiso       1.00
      C597          C  0.4398580  0.5088050  0.0621930    0.00000       Uiso       1.00
      C598          C  0.9398580  0.0088050  0.5621930    0.00000       Uiso       1.00
      C599          C  0.9398580  0.9911950  0.9378071    0.00000       Uiso       1.00
      C600          C  0.4398580  0.4911950  0.4378070    0.00000       Uiso       1.00
      C601          C  0.0601420  0.4911950  0.5621930    0.00000       Uiso       1.00
      C602          C  0.5601420  0.9911950  0.0621930    0.00000       Uiso       1.00
      C603          C  0.5601420  0.0088050  0.4378070    0.00000       Uiso       1.00
      C604          C  0.0601420  0.5088050  0.9378071    0.00000       Uiso       1.00
      C605          C  0.0621930  0.4398580  0.5088050    0.00000       Uiso       1.00
      C606          C  0.5621930  0.9398580  0.0088050    0.00000       Uiso       1.00
      C607          C  0.9378071  0.9398580  0.9911950    0.00000       Uiso       1.00
      C608          C  0.4378070  0.4398580  0.4911950    0.00000       Uiso       1.00
      C609          C  0.5621930  0.0601420  0.4911950    0.00000       Uiso       1.00
      C610          C  0.0621930  0.5601420  0.9911950    0.00000       Uiso       1.00
      C611          C  0.4378070  0.5601420  0.0088050    0.00000       Uiso       1.00
      C612          C  0.9378071  0.0601420  0.5088050    0.00000       Uiso       1.00
      C613          C  0.3121930  0.7588050  0.6898580    0.00000       Uiso       1.00
      C614          C  0.8121930  0.2588050  0.1898580    0.00000       Uiso       1.00
      C615          C  0.1878070  0.2411950  0.1898580    0.00000       Uiso       1.00
      C616          C  0.6878070  0.7411950  0.6898580    0.00000       Uiso       1.00
      C617          C  0.8121930  0.7411950  0.3101420    0.00000       Uiso       1.00
      C618          C  0.3121930  0.2411950  0.8101420    0.00000       Uiso       1.00
      C619          C  0.6878070  0.2588050  0.8101420    0.00000       Uiso       1.00
      C620          C  0.1878070  0.7588050  0.3101420    0.00000       Uiso       1.00
      C621          C  0.7588050  0.6898580  0.3121930    0.00000       Uiso       1.00
      C622          C  0.2588050  0.1898580  0.8121930    0.00000       Uiso       1.00
      C623          C  0.2411950  0.1898580  0.1878070    0.00000       Uiso       1.00
      C624          C  0.7411950  0.6898580  0.6878070    0.00000       Uiso       1.00
      C625          C  0.7411950  0.3101420  0.8121930    0.00000       Uiso       1.00
      C626          C  0.2411950  0.8101420  0.3121930    0.00000       Uiso       1.00
      C627          C  0.2588050  0.8101420  0.6878070    0.00000       Uiso       1.00
      C628          C  0.7588050  0.3101420  0.1878070    0.00000       Uiso       1.00
      C629          C  0.6898580  0.3121930  0.7588050    0.00000       Uiso       1.00
      C630          C  0.1898580  0.8121930  0.2588050    0.00000       Uiso       1.00
      C631          C  0.1898580  0.1878070  0.2411950    0.00000       Uiso       1.00
      C632          C  0.6898580  0.6878070  0.7411950    0.00000       Uiso       1.00
      C633          C  0.3101420  0.8121930  0.7411950    0.00000       Uiso       1.00
      C634          C  0.8101420  0.3121930  0.2411950    0.00000       Uiso       1.00
      C635          C  0.8101420  0.6878070  0.2588050    0.00000       Uiso       1.00
      C636          C  0.3101420  0.1878070  0.7588050    0.00000       Uiso       1.00
      C637          C  0.5026210  0.0470380  0.4182060    0.00000       Uiso       1.00
      C638          C  0.0026210  0.5470380  0.9182060    0.00000       Uiso       1.00
      C639          C  0.9973790  0.9529620  0.9182060    0.00000       Uiso       1.00
      C640          C  0.4973790  0.4529620  0.4182060    0.00000       Uiso       1.00
      C641          C  0.4973790  0.5470380  0.0817940    0.00000       Uiso       1.00
      C642          C  0.9973790  0.0470380  0.5817940    0.00000       Uiso       1.00
      C643          C  0.0026210  0.4529620  0.5817940    0.00000       Uiso       1.00
      C644          C  0.5026210  0.9529620  0.0817940    0.00000       Uiso       1.00
      C645          C  0.4182060  0.5026210  0.0470380    0.00000       Uiso       1.00
      C646          C  0.9182060  0.0026210  0.5470380    0.00000       Uiso       1.00
      C647          C  0.9182060  0.9973790  0.9529620    0.00000       Uiso       1.00
      C648          C  0.4182060  0.4973790  0.4529620    0.00000       Uiso       1.00
      C649          C  0.0817940  0.4973790  0.5470380    0.00000       Uiso       1.00
      C650          C  0.5817940  0.9973790  0.0470380    0.00000       Uiso       1.00
      C651          C  0.5817940  0.0026210  0.4529620    0.00000       Uiso       1.00
      C652          C  0.0817940  0.5026210  0.9529620    0.00000       Uiso       1.00
      C653          C  0.0470380  0.4182060  0.5026210    0.00000       Uiso       1.00
      C654          C  0.5470380  0.9182060  0.0026210    0.00000       Uiso       1.00
      C655          C  0.9529620  0.9182060  0.9973790    0.00000       Uiso       1.00
      C656          C  0.4529620  0.4182060  0.4973790    0.00000       Uiso       1.00
      C657          C  0.5470380  0.0817940  0.4973790    0.00000       Uiso       1.00
      C658          C  0.0470380  0.5817940  0.9973790    0.00000       Uiso       1.00
      C659          C  0.4529620  0.5817940  0.0026210    0.00000       Uiso       1.00
      C660          C  0.9529620  0.0817940  0.5026210    0.00000       Uiso       1.00
      C661          C  0.2970380  0.7526209  0.6682060    0.00000       Uiso       1.00
      C662          C  0.7970380  0.2526210  0.1682060    0.00000       Uiso       1.00
      C663          C  0.2029620  0.2473790  0.1682060    0.00000       Uiso       1.00
      C664          C  0.7029620  0.7473790  0.6682060    0.00000       Uiso       1.00
      C665          C  0.7970380  0.7473790  0.3317940    0.00000       Uiso       1.00
      C666          C  0.2970380  0.2473790  0.8317940    0.00000       Uiso       1.00
      C667          C  0.7029620  0.2526210  0.8317940    0.00000       Uiso       1.00
      C668          C  0.2029620  0.7526209  0.3317940    0.00000       Uiso       1.00
      C669          C  0.7526209  0.6682060  0.2970380    0.00000       Uiso       1.00
      C670          C  0.2526210  0.1682060  0.7970380    0.00000       Uiso       1.00
      C671          C  0.2473790  0.1682060  0.2029620    0.00000       Uiso       1.00
      C672          C  0.7473790  0.6682060  0.7029620    0.00000       Uiso       1.00
      C673          C  0.7473790  0.3317940  0.7970380    0.00000       Uiso       1.00
      C674          C  0.2473790  0.8317940  0.2970380    0.00000       Uiso       1.00
      C675          C  0.2526210  0.8317940  0.7029620    0.00000       Uiso       1.00
      C676          C  0.7526209  0.3317940  0.2029620    0.00000       Uiso       1.00
      C677          C  0.6682060  0.2970380  0.7526209    0.00000       Uiso       1.00
      C678          C  0.1682060  0.7970380  0.2526210    0.00000       Uiso       1.00
      C679          C  0.1682060  0.2029620  0.2473790    0.00000       Uiso       1.00
      C680          C  0.6682060  0.7029620  0.7473790    0.00000       Uiso       1.00
      C681          C  0.3317940  0.7970380  0.7473790    0.00000       Uiso       1.00
      C682          C  0.8317940  0.2970380  0.2473790    0.00000       Uiso       1.00
      C683          C  0.8317940  0.7029620  0.2526210    0.00000       Uiso       1.00
      C684          C  0.3317940  0.2029620  0.7526209    0.00000       Uiso       1.00
      O685          O  0.4511150  0.0431510  0.3612560    0.00000       Uiso       1.00
      O686          O  0.9511160  0.5431510  0.8612561    0.00000       Uiso       1.00
      O687          O  0.0488850  0.9568490  0.8612561    0.00000       Uiso       1.00
      O688          O  0.5488850  0.4568490  0.3612560    0.00000       Uiso       1.00
      O689          O  0.5488850  0.5431510  0.1387440    0.00000       Uiso       1.00
      O690          O  0.0488850  0.0431510  0.6387440    0.00000       Uiso       1.00
      O691          O  0.9511160  0.4568490  0.6387440    0.00000       Uiso       1.00
      O692          O  0.4511150  0.9568490  0.1387440    0.00000       Uiso       1.00
      O693          O  0.3612560  0.4511150  0.0431510    0.00000       Uiso       1.00
      O694          O  0.8612561  0.9511160  0.5431510    0.00000       Uiso       1.00
      O695          O  0.8612561  0.0488850  0.9568490    0.00000       Uiso       1.00
      O696          O  0.3612560  0.5488850  0.4568490    0.00000       Uiso       1.00
      O697          O  0.1387440  0.5488850  0.5431510    0.00000       Uiso       1.00
      O698          O  0.6387440  0.0488850  0.0431510    0.00000       Uiso       1.00
      O699          O  0.6387440  0.9511160  0.4568490    0.00000       Uiso       1.00
      O700          O  0.1387440  0.4511150  0.9568490    0.00000       Uiso       1.00
      O701          O  0.0431510  0.3612560  0.4511150    0.00000       Uiso       1.00
      O702          O  0.5431510  0.8612561  0.9511160    0.00000       Uiso       1.00
      O703          O  0.9568490  0.8612561  0.0488850    0.00000       Uiso       1.00
      O704          O  0.4568490  0.3612560  0.5488850    0.00000       Uiso       1.00
      O705          O  0.5431510  0.1387440  0.5488850    0.00000       Uiso       1.00
      O706          O  0.0431510  0.6387440  0.0488850    0.00000       Uiso       1.00
      O707          O  0.4568490  0.6387440  0.9511160    0.00000       Uiso       1.00
      O708          O  0.9568490  0.1387440  0.4511150    0.00000       Uiso       1.00
      O709          O  0.2931510  0.7011150  0.6112560    0.00000       Uiso       1.00
      O710          O  0.7931510  0.2011150  0.1112560    0.00000       Uiso       1.00
      O711          O  0.2068490  0.2988850  0.1112560    0.00000       Uiso       1.00
      O712          O  0.7068490  0.7988850  0.6112560    0.00000       Uiso       1.00
      O713          O  0.7931510  0.7988850  0.3887440    0.00000       Uiso       1.00
      O714          O  0.2931510  0.2988850  0.8887440    0.00000       Uiso       1.00
      O715          O  0.7068490  0.2011150  0.8887440    0.00000       Uiso       1.00
      O716          O  0.2068490  0.7011150  0.3887440    0.00000       Uiso       1.00
      O717          O  0.7011150  0.6112560  0.2931510    0.00000       Uiso       1.00
      O718          O  0.2011150  0.1112560  0.7931510    0.00000       Uiso       1.00
      O719          O  0.2988850  0.1112560  0.2068490    0.00000       Uiso       1.00
      O720          O  0.7988850  0.6112560  0.7068490    0.00000       Uiso       1.00
      O721          O  0.7988850  0.3887440  0.7931510    0.00000       Uiso       1.00
      O722          O  0.2988850  0.8887440  0.2931510    0.00000       Uiso       1.00
      O723          O  0.2011150  0.8887440  0.7068490    0.00000       Uiso       1.00
      O724          O  0.7011150  0.3887440  0.2068490    0.00000       Uiso       1.00
      O725          O  0.6112560  0.2931510  0.7011150    0.00000       Uiso       1.00
      O726          O  0.1112560  0.7931510  0.2011150    0.00000       Uiso       1.00
      O727          O  0.1112560  0.2068490  0.2988850    0.00000       Uiso       1.00
      O728          O  0.6112560  0.7068490  0.7988850    0.00000       Uiso       1.00
      O729          O  0.3887440  0.7931510  0.7988850    0.00000       Uiso       1.00
      O730          O  0.8887440  0.2931510  0.2988850    0.00000       Uiso       1.00
      O731          O  0.8887440  0.7068490  0.2011150    0.00000       Uiso       1.00
      O732          O  0.3887440  0.2068490  0.7011150    0.00000       Uiso       1.00
      C733          C  0.5148780  0.1275990  0.5132970    0.00000       Uiso       1.00
      C734          C  0.0148780  0.6275990  0.0132970    0.00000       Uiso       1.00
      C735          C  0.9851220  0.8724010  0.0132970    0.00000       Uiso       1.00
      C736          C  0.4851220  0.3724010  0.5132970    0.00000       Uiso       1.00
      C737          C  0.4851220  0.6275990  0.9867030    0.00000       Uiso       1.00
      C738          C  0.9851220  0.1275990  0.4867030    0.00000       Uiso       1.00
      C739          C  0.0148780  0.3724010  0.4867030    0.00000       Uiso       1.00
      C740          C  0.5148780  0.8724010  0.9867030    0.00000       Uiso       1.00
      C741          C  0.5132970  0.5148780  0.1275990    0.00000       Uiso       1.00
      C742          C  0.0132970  0.0148780  0.6275990    0.00000       Uiso       1.00
      C743          C  0.0132970  0.9851220  0.8724010    0.00000       Uiso       1.00
      C744          C  0.5132970  0.4851220  0.3724010    0.00000       Uiso       1.00
      C745          C  0.9867030  0.4851220  0.6275990    0.00000       Uiso       1.00
      C746          C  0.4867030  0.9851220  0.1275990    0.00000       Uiso       1.00
      C747          C  0.4867030  0.0148780  0.3724010    0.00000       Uiso       1.00
      C748          C  0.9867030  0.5148780  0.8724010    0.00000       Uiso       1.00
      C749          C  0.1275990  0.5132970  0.5148780    0.00000       Uiso       1.00
      C750          C  0.6275990  0.0132970  0.0148780    0.00000       Uiso       1.00
      C751          C  0.8724010  0.0132970  0.9851220    0.00000       Uiso       1.00
      C752          C  0.3724010  0.5132970  0.4851220    0.00000       Uiso       1.00
      C753          C  0.6275990  0.9867030  0.4851220    0.00000       Uiso       1.00
      C754          C  0.1275990  0.4867030  0.9851220    0.00000       Uiso       1.00
      C755          C  0.3724010  0.4867030  0.0148780    0.00000       Uiso       1.00
      C756          C  0.8724010  0.9867030  0.5148780    0.00000       Uiso       1.00
      C757          C  0.3775990  0.7648780  0.7632970    0.00000       Uiso       1.00
      C758          C  0.8775990  0.2648780  0.2632970    0.00000       Uiso       1.00
      C759          C  0.1224010  0.2351220  0.2632970    0.00000       Uiso       1.00
      C760          C  0.6224010  0.7351220  0.7632970    0.00000       Uiso       1.00
      C761          C  0.8775990  0.7351220  0.2367030    0.00000       Uiso       1.00
      C762          C  0.3775990  0.2351220  0.7367030    0.00000       Uiso       1.00
      C763          C  0.6224010  0.2648780  0.7367030    0.00000       Uiso       1.00
      C764          C  0.1224010  0.7648780  0.2367030    0.00000       Uiso       1.00
      C765          C  0.7648780  0.7632970  0.3775990    0.00000       Uiso       1.00
      C766          C  0.2648780  0.2632970  0.8775990    0.00000       Uiso       1.00
      C767          C  0.2351220  0.2632970  0.1224010    0.00000       Uiso       1.00
      C768          C  0.7351220  0.7632970  0.6224010    0.00000       Uiso       1.00
      C769          C  0.7351220  0.2367030  0.8775990    0.00000       Uiso       1.00
      C770          C  0.2351220  0.7367030  0.3775990    0.00000       Uiso       1.00
      C771          C  0.2648780  0.7367030  0.6224010    0.00000       Uiso       1.00
      C772          C  0.7648780  0.2367030  0.1224010    0.00000       Uiso       1.00
      C773          C  0.7632970  0.3775990  0.7648780    0.00000       Uiso       1.00
      C774          C  0.2632970  0.8775990  0.2648780    0.00000       Uiso       1.00
      C775          C  0.2632970  0.1224010  0.2351220    0.00000       Uiso       1.00
      C776          C  0.7632970  0.6224010  0.7351220    0.00000       Uiso       1.00
      C777          C  0.2367030  0.8775990  0.7351220    0.00000       Uiso       1.00
      C778          C  0.7367030  0.3775990  0.2351220    0.00000       Uiso       1.00
      C779          C  0.7367030  0.6224010  0.2648780    0.00000       Uiso       1.00
      C780          C  0.2367030  0.1224010  0.7648780    0.00000       Uiso       1.00
      C781          C  0.5065980  0.1121300  0.4902090    0.00000       Uiso       1.00
      C782          C  0.0065980  0.6121300  0.9902090    0.00000       Uiso       1.00
      C783          C  0.9934020  0.8878700  0.9902090    0.00000       Uiso       1.00
      C784          C  0.4934020  0.3878700  0.4902090    0.00000       Uiso       1.00
      C785          C  0.4934020  0.6121300  0.0097910    0.00000       Uiso       1.00
      C786          C  0.9934020  0.1121300  0.5097910    0.00000       Uiso       1.00
      C787          C  0.0065980  0.3878700  0.5097910    0.00000       Uiso       1.00
      C788          C  0.5065980  0.8878700  0.0097910    0.00000       Uiso       1.00
      C789          C  0.4902090  0.5065980  0.1121300    0.00000       Uiso       1.00
      C790          C  0.9902090  0.0065980  0.6121300    0.00000       Uiso       1.00
      C791          C  0.9902090  0.9934020  0.8878700    0.00000       Uiso       1.00
      C792          C  0.4902090  0.4934020  0.3878700    0.00000       Uiso       1.00
      C793          C  0.0097910  0.4934020  0.6121300    0.00000       Uiso       1.00
      C794          C  0.5097910  0.9934020  0.1121300    0.00000       Uiso       1.00
      C795          C  0.5097910  0.0065980  0.3878700    0.00000       Uiso       1.00
      C796          C  0.0097910  0.5065980  0.8878700    0.00000       Uiso       1.00
      C797          C  0.1121300  0.4902090  0.5065980    0.00000       Uiso       1.00
      C798          C  0.6121300  0.9902090  0.0065980    0.00000       Uiso       1.00
      C799          C  0.8878700  0.9902090  0.9934020    0.00000       Uiso       1.00
      C800          C  0.3878700  0.4902090  0.4934020    0.00000       Uiso       1.00
      C801          C  0.6121300  0.0097910  0.4934020    0.00000       Uiso       1.00
      C802          C  0.1121300  0.5097910  0.9934020    0.00000       Uiso       1.00
      C803          C  0.3878700  0.5097910  0.0065980    0.00000       Uiso       1.00
      C804          C  0.8878700  0.0097910  0.5065980    0.00000       Uiso       1.00
      C805          C  0.3621300  0.7565981  0.7402090    0.00000       Uiso       1.00
      C806          C  0.8621300  0.2565980  0.2402090    0.00000       Uiso       1.00
      C807          C  0.1378700  0.2434020  0.2402090    0.00000       Uiso       1.00
      C808          C  0.6378700  0.7434020  0.7402090    0.00000       Uiso       1.00
      C809          C  0.8621300  0.7434020  0.2597910    0.00000       Uiso       1.00
      C810          C  0.3621300  0.2434020  0.7597910    0.00000       Uiso       1.00
      C811          C  0.6378700  0.2565980  0.7597910    0.00000       Uiso       1.00
      C812          C  0.1378700  0.7565981  0.2597910    0.00000       Uiso       1.00
      C813          C  0.7565981  0.7402090  0.3621300    0.00000       Uiso       1.00
      C814          C  0.2565980  0.2402090  0.8621300    0.00000       Uiso       1.00
      C815          C  0.2434020  0.2402090  0.1378700    0.00000       Uiso       1.00
      C816          C  0.7434020  0.7402090  0.6378700    0.00000       Uiso       1.00
      C817          C  0.7434020  0.2597910  0.8621300    0.00000       Uiso       1.00
      C818          C  0.2434020  0.7597910  0.3621300    0.00000       Uiso       1.00
      C819          C  0.2565980  0.7597910  0.6378700    0.00000       Uiso       1.00
      C820          C  0.7565981  0.2597910  0.1378700    0.00000       Uiso       1.00
      C821          C  0.7402090  0.3621300  0.7565981    0.00000       Uiso       1.00
      C822          C  0.2402090  0.8621300  0.2565980    0.00000       Uiso       1.00
      C823          C  0.2402090  0.1378700  0.2434020    0.00000       Uiso       1.00
      C824          C  0.7402090  0.6378700  0.7434020    0.00000       Uiso       1.00
      C825          C  0.2597910  0.8621300  0.7434020    0.00000       Uiso       1.00
      C826          C  0.7597910  0.3621300  0.2434020    0.00000       Uiso       1.00
      C827          C  0.7597910  0.6378700  0.2565980    0.00000       Uiso       1.00
      C828          C  0.2597910  0.1378700  0.7565981    0.00000       Uiso       1.00
      C829          C  0.5150690  0.0753320  0.4598660    0.00000       Uiso       1.00
      C830          C  0.0150690  0.5753320  0.9598660    0.00000       Uiso       1.00
      C831          C  0.9849310  0.9246680  0.9598660    0.00000       Uiso       1.00
      C832          C  0.4849310  0.4246680  0.4598660    0.00000       Uiso       1.00
      C833          C  0.4849310  0.5753320  0.0401340    0.00000       Uiso       1.00
      C834          C  0.9849310  0.0753320  0.5401340    0.00000       Uiso       1.00
      C835          C  0.0150690  0.4246680  0.5401340    0.00000       Uiso       1.00
      C836          C  0.5150690  0.9246680  0.0401340    0.00000       Uiso       1.00
      C837          C  0.4598660  0.5150690  0.0753320    0.00000       Uiso       1.00
      C838          C  0.9598660  0.0150690  0.5753320    0.00000       Uiso       1.00
      C839          C  0.9598660  0.9849310  0.9246680    0.00000       Uiso       1.00
      C840          C  0.4598660  0.4849310  0.4246680    0.00000       Uiso       1.00
      C841          C  0.0401340  0.4849310  0.5753320    0.00000       Uiso       1.00
      C842          C  0.5401340  0.9849310  0.0753320    0.00000       Uiso       1.00
      C843          C  0.5401340  0.0150690  0.4246680    0.00000       Uiso       1.00
      C844          C  0.0401340  0.5150690  0.9246680    0.00000       Uiso       1.00
      C845          C  0.0753320  0.4598660  0.5150690    0.00000       Uiso       1.00
      C846          C  0.5753320  0.9598660  0.0150690    0.00000       Uiso       1.00
      C847          C  0.9246680  0.9598660  0.9849310    0.00000       Uiso       1.00
      C848          C  0.4246680  0.4598660  0.4849310    0.00000       Uiso       1.00
      C849          C  0.5753320  0.0401340  0.4849310    0.00000       Uiso       1.00
      C850          C  0.0753320  0.5401340  0.9849310    0.00000       Uiso       1.00
      C851          C  0.4246680  0.5401340  0.0150690    0.00000       Uiso       1.00
      C852          C  0.9246680  0.0401340  0.5150690    0.00000       Uiso       1.00
      C853          C  0.3253320  0.7650690  0.7098660    0.00000       Uiso       1.00
      C854          C  0.8253320  0.2650690  0.2098660    0.00000       Uiso       1.00
      C855          C  0.1746680  0.2349310  0.2098660    0.00000       Uiso       1.00
      C856          C  0.6746680  0.7349310  0.7098660    0.00000       Uiso       1.00
      C857          C  0.8253320  0.7349310  0.2901340    0.00000       Uiso       1.00
      C858          C  0.3253320  0.2349310  0.7901340    0.00000       Uiso       1.00
      C859          C  0.6746680  0.2650690  0.7901340    0.00000       Uiso       1.00
      C860          C  0.1746680  0.7650690  0.2901340    0.00000       Uiso       1.00
      C861          C  0.7650690  0.7098660  0.3253320    0.00000       Uiso       1.00
      C862          C  0.2650690  0.2098660  0.8253320    0.00000       Uiso       1.00
      C863          C  0.2349310  0.2098660  0.1746680    0.00000       Uiso       1.00
      C864          C  0.7349310  0.7098660  0.6746680    0.00000       Uiso       1.00
      C865          C  0.7349310  0.2901340  0.8253320    0.00000       Uiso       1.00
      C866          C  0.2349310  0.7901340  0.3253320    0.00000       Uiso       1.00
      C867          C  0.2650690  0.7901340  0.6746680    0.00000       Uiso       1.00
      C868          C  0.7650690  0.2901340  0.1746680    0.00000       Uiso       1.00
      C869          C  0.7098660  0.3253320  0.7650690    0.00000       Uiso       1.00
      C870          C  0.2098660  0.8253320  0.2650690    0.00000       Uiso       1.00
      C871          C  0.2098660  0.1746680  0.2349310    0.00000       Uiso       1.00
      C872          C  0.7098660  0.6746680  0.7349310    0.00000       Uiso       1.00
      C873          C  0.2901340  0.8253320  0.7349310    0.00000       Uiso       1.00
      C874          C  0.7901340  0.3253320  0.2349310    0.00000       Uiso       1.00
      C875          C  0.7901340  0.6746680  0.2650690    0.00000       Uiso       1.00
      C876          C  0.2901340  0.1746680  0.7650690    0.00000       Uiso       1.00
      C877          C  0.5228600  0.0891500  0.4818880    0.00000       Uiso       1.00
      C878          C  0.0228600  0.5891500  0.9818880    0.00000       Uiso       1.00
      C879          C  0.9771400  0.9108500  0.9818880    0.00000       Uiso       1.00
      C880          C  0.4771400  0.4108500  0.4818880    0.00000       Uiso       1.00
      C881          C  0.4771400  0.5891500  0.0181120    0.00000       Uiso       1.00
      C882          C  0.9771400  0.0891500  0.5181120    0.00000       Uiso       1.00
      C883          C  0.0228600  0.4108500  0.5181120    0.00000       Uiso       1.00
      C884          C  0.5228600  0.9108500  0.0181120    0.00000       Uiso       1.00
      C885          C  0.4818880  0.5228600  0.0891500    0.00000       Uiso       1.00
      C886          C  0.9818880  0.0228600  0.5891500    0.00000       Uiso       1.00
      C887          C  0.9818880  0.9771400  0.9108500    0.00000       Uiso       1.00
      C888          C  0.4818880  0.4771400  0.4108500    0.00000       Uiso       1.00
      C889          C  0.0181120  0.4771400  0.5891500    0.00000       Uiso       1.00
      C890          C  0.5181120  0.9771400  0.0891500    0.00000       Uiso       1.00
      C891          C  0.5181120  0.0228600  0.4108500    0.00000       Uiso       1.00
      C892          C  0.0181120  0.5228600  0.9108500    0.00000       Uiso       1.00
      C893          C  0.0891500  0.4818880  0.5228600    0.00000       Uiso       1.00
      C894          C  0.5891500  0.9818880  0.0228600    0.00000       Uiso       1.00
      C895          C  0.9108500  0.9818880  0.9771400    0.00000       Uiso       1.00
      C896          C  0.4108500  0.4818880  0.4771400    0.00000       Uiso       1.00
      C897          C  0.5891500  0.0181120  0.4771400    0.00000       Uiso       1.00
      C898          C  0.0891500  0.5181120  0.9771400    0.00000       Uiso       1.00
      C899          C  0.4108500  0.5181120  0.0228600    0.00000       Uiso       1.00
      C900          C  0.9108500  0.0181120  0.5228600    0.00000       Uiso       1.00
      C901          C  0.3391500  0.7728600  0.7318880    0.00000       Uiso       1.00
      C902          C  0.8391500  0.2728600  0.2318880    0.00000       Uiso       1.00
      C903          C  0.1608500  0.2271400  0.2318880    0.00000       Uiso       1.00
      C904          C  0.6608500  0.7271400  0.7318880    0.00000       Uiso       1.00
      C905          C  0.8391500  0.7271400  0.2681120    0.00000       Uiso       1.00
      C906          C  0.3391500  0.2271400  0.7681120    0.00000       Uiso       1.00
      C907          C  0.6608500  0.2728600  0.7681120    0.00000       Uiso       1.00
      C908          C  0.1608500  0.7728600  0.2681120    0.00000       Uiso       1.00
      C909          C  0.7728600  0.7318880  0.3391500    0.00000       Uiso       1.00
      C910          C  0.2728600  0.2318880  0.8391500    0.00000       Uiso       1.00
      C911          C  0.2271400  0.2318880  0.1608500    0.00000       Uiso       1.00
      C912          C  0.7271400  0.7318880  0.6608500    0.00000       Uiso       1.00
      C913          C  0.7271400  0.2681120  0.8391500    0.00000       Uiso       1.00
      C914          C  0.2271400  0.7681120  0.3391500    0.00000       Uiso       1.00
      C915          C  0.2728600  0.7681120  0.6608500    0.00000       Uiso       1.00
      C916          C  0.7728600  0.2681120  0.1608500    0.00000       Uiso       1.00
      C917          C  0.7318880  0.3391500  0.7728600    0.00000       Uiso       1.00
      C918          C  0.2318880  0.8391500  0.2728600    0.00000       Uiso       1.00
      C919          C  0.2318880  0.1608500  0.2271400    0.00000       Uiso       1.00
      C920          C  0.7318880  0.6608500  0.7271400    0.00000       Uiso       1.00
      C921          C  0.2681120  0.8391500  0.7271400    0.00000       Uiso       1.00
      C922          C  0.7681120  0.3391500  0.2271400    0.00000       Uiso       1.00
      C923          C  0.7681120  0.6608500  0.2728600    0.00000       Uiso       1.00
      C924          C  0.2681120  0.1608500  0.7728600    0.00000       Uiso       1.00
      O925          O  0.5022780  0.1498570  0.5245110    0.00000       Uiso       1.00
      O926          O  0.0022780  0.6498570  0.0245110    0.00000       Uiso       1.00
      O927          O  0.9977220  0.8501430  0.0245110    0.00000       Uiso       1.00
      O928          O  0.4977220  0.3501430  0.5245110    0.00000       Uiso       1.00
      O929          O  0.4977220  0.6498570  0.9754890    0.00000       Uiso       1.00
      O930          O  0.9977220  0.1498570  0.4754890    0.00000       Uiso       1.00
      O931          O  0.0022780  0.3501430  0.4754890    0.00000       Uiso       1.00
      O932          O  0.5022780  0.8501430  0.9754890    0.00000       Uiso       1.00
      O933          O  0.5245110  0.5022780  0.1498570    0.00000       Uiso       1.00
      O934          O  0.0245110  0.0022780  0.6498570    0.00000       Uiso       1.00
      O935          O  0.0245110  0.9977220  0.8501430    0.00000       Uiso       1.00
      O936          O  0.5245110  0.4977220  0.3501430    0.00000       Uiso       1.00
      O937          O  0.9754890  0.4977220  0.6498570    0.00000       Uiso       1.00
      O938          O  0.4754890  0.9977220  0.1498570    0.00000       Uiso       1.00
      O939          O  0.4754890  0.0022780  0.3501430    0.00000       Uiso       1.00
      O940          O  0.9754890  0.5022780  0.8501430    0.00000       Uiso       1.00
      O941          O  0.1498570  0.5245110  0.5022780    0.00000       Uiso       1.00
      O942          O  0.6498570  0.0245110  0.0022780    0.00000       Uiso       1.00
      O943          O  0.8501430  0.0245110  0.9977220    0.00000       Uiso       1.00
      O944          O  0.3501430  0.5245110  0.4977220    0.00000       Uiso       1.00
      O945          O  0.6498570  0.9754890  0.4977220    0.00000       Uiso       1.00
      O946          O  0.1498570  0.4754890  0.9977220    0.00000       Uiso       1.00
      O947          O  0.3501430  0.4754890  0.0022780    0.00000       Uiso       1.00
      O948          O  0.8501430  0.9754890  0.5022780    0.00000       Uiso       1.00
      O949          O  0.3998570  0.7522780  0.7745110    0.00000       Uiso       1.00
      O950          O  0.8998570  0.2522780  0.2745110    0.00000       Uiso       1.00
      O951          O  0.1001430  0.2477220  0.2745110    0.00000       Uiso       1.00
      O952          O  0.6001430  0.7477220  0.7745110    0.00000       Uiso       1.00
      O953          O  0.8998570  0.7477220  0.2254890    0.00000       Uiso       1.00
      O954          O  0.3998570  0.2477220  0.7254890    0.00000       Uiso       1.00
      O955          O  0.6001430  0.2522780  0.7254890    0.00000       Uiso       1.00
      O956          O  0.1001430  0.7522780  0.2254890    0.00000       Uiso       1.00
      O957          O  0.7522780  0.7745110  0.3998570    0.00000       Uiso       1.00
      O958          O  0.2522780  0.2745110  0.8998570    0.00000       Uiso       1.00
      O959          O  0.2477220  0.2745110  0.1001430    0.00000       Uiso       1.00
      O960          O  0.7477220  0.7745110  0.6001430    0.00000       Uiso       1.00
      O961          O  0.7477220  0.2254890  0.8998570    0.00000       Uiso       1.00
      O962          O  0.2477220  0.7254890  0.3998570    0.00000       Uiso       1.00
      O963          O  0.2522780  0.7254890  0.6001430    0.00000       Uiso       1.00
      O964          O  0.7522780  0.2254890  0.1001430    0.00000       Uiso       1.00
      O965          O  0.7745110  0.3998570  0.7522780    0.00000       Uiso       1.00
      O966          O  0.2745110  0.8998570  0.2522780    0.00000       Uiso       1.00
      O967          O  0.2745110  0.1001430  0.2477220    0.00000       Uiso       1.00
      O968          O  0.7745110  0.6001430  0.7477220    0.00000       Uiso       1.00
      O969          O  0.2254890  0.8998570  0.7477220    0.00000       Uiso       1.00
      O970          O  0.7254890  0.3998570  0.2477220    0.00000       Uiso       1.00
      O971          O  0.7254890  0.6001430  0.2522780    0.00000       Uiso       1.00
      O972          O  0.2254890  0.1001430  0.7522780    0.00000       Uiso       1.00
      B973          B  0.4526670  0.0199750  0.3424610    0.00000       Uiso       1.00
      B974          B  0.9526670  0.5199750  0.8424600    0.00000       Uiso       1.00
      B975          B  0.0473330  0.9800250  0.8424600    0.00000       Uiso       1.00
      B976          B  0.5473330  0.4800250  0.3424610    0.00000       Uiso       1.00
      B977          B  0.5473330  0.5199750  0.1575400    0.00000       Uiso       1.00
      B978          B  0.0473330  0.0199750  0.6575400    0.00000       Uiso       1.00
      B979          B  0.9526670  0.4800250  0.6575400    0.00000       Uiso       1.00
      B980          B  0.4526670  0.9800250  0.1575400    0.00000       Uiso       1.00
      B981          B  0.3424610  0.4526670  0.0199750    0.00000       Uiso       1.00
      B982          B  0.8424600  0.9526670  0.5199750    0.00000       Uiso       1.00
      B983          B  0.8424600  0.0473330  0.9800250    0.00000       Uiso       1.00
      B984          B  0.3424610  0.5473330  0.4800250    0.00000       Uiso       1.00
      B985          B  0.1575400  0.5473330  0.5199750    0.00000       Uiso       1.00
      B986          B  0.6575400  0.0473330  0.0199750    0.00000       Uiso       1.00
      B987          B  0.6575400  0.9526670  0.4800250    0.00000       Uiso       1.00
      B988          B  0.1575400  0.4526670  0.9800250    0.00000       Uiso       1.00
      B989          B  0.0199750  0.3424610  0.4526670    0.00000       Uiso       1.00
      B990          B  0.5199750  0.8424600  0.9526670    0.00000       Uiso       1.00
      B991          B  0.9800250  0.8424600  0.0473330    0.00000       Uiso       1.00
      B992          B  0.4800250  0.3424610  0.5473330    0.00000       Uiso       1.00
      B993          B  0.5199750  0.1575400  0.5473330    0.00000       Uiso       1.00
      B994          B  0.0199750  0.6575400  0.0473330    0.00000       Uiso       1.00
      B995          B  0.4800250  0.6575400  0.9526670    0.00000       Uiso       1.00
      B996          B  0.9800250  0.1575400  0.4526670    0.00000       Uiso       1.00
      B997          B  0.2699750  0.7026670  0.5924610    0.00000       Uiso       1.00
      B998          B  0.7699760  0.2026670  0.0924600    0.00000       Uiso       1.00
      B999          B  0.2300250  0.2973330  0.0924600    0.00000       Uiso       1.00
     B1000          B  0.7300250  0.7973329  0.5924610    0.00000       Uiso       1.00
     B1001          B  0.7699760  0.7973329  0.4075400    0.00000       Uiso       1.00
     B1002          B  0.2699750  0.2973330  0.9075400    0.00000       Uiso       1.00
     B1003          B  0.7300250  0.2026670  0.9075400    0.00000       Uiso       1.00
     B1004          B  0.2300250  0.7026670  0.4075400    0.00000       Uiso       1.00
     B1005          B  0.7026670  0.5924610  0.2699750    0.00000       Uiso       1.00
     B1006          B  0.2026670  0.0924600  0.7699760    0.00000       Uiso       1.00
     B1007          B  0.2973330  0.0924600  0.2300250    0.00000       Uiso       1.00
     B1008          B  0.7973329  0.5924610  0.7300250    0.00000       Uiso       1.00
     B1009          B  0.7973329  0.4075400  0.7699760    0.00000       Uiso       1.00
     B1010          B  0.2973330  0.9075400  0.2699750    0.00000       Uiso       1.00
     B1011          B  0.2026670  0.9075400  0.7300250    0.00000       Uiso       1.00
     B1012          B  0.7026670  0.4075400  0.2300250    0.00000       Uiso       1.00
     B1013          B  0.5924610  0.2699750  0.7026670    0.00000       Uiso       1.00
     B1014          B  0.0924600  0.7699760  0.2026670    0.00000       Uiso       1.00
     B1015          B  0.0924600  0.2300250  0.2973330    0.00000       Uiso       1.00
     B1016          B  0.5924610  0.7300250  0.7973329    0.00000       Uiso       1.00
     B1017          B  0.4075400  0.7699760  0.7973329    0.00000       Uiso       1.00
     B1018          B  0.9075400  0.2699750  0.2973330    0.00000       Uiso       1.00
     B1019          B  0.9075400  0.7300250  0.2026670    0.00000       Uiso       1.00
     B1020          B  0.4075400  0.2300250  0.7026670    0.00000       Uiso       1.00
     H1021          H  0.4681360  0.0724330  0.4062230    0.00000       Uiso       1.00
     H1022          H  0.9681360  0.5724330  0.9062230    0.00000       Uiso       1.00
     H1023          H  0.0318640  0.9275670  0.9062230    0.00000       Uiso       1.00
     H1024          H  0.5318640  0.4275670  0.4062230    0.00000       Uiso       1.00
     H1025          H  0.5318640  0.5724330  0.0937770    0.00000       Uiso       1.00
     H1026          H  0.0318640  0.0724330  0.5937770    0.00000       Uiso       1.00
     H1027          H  0.9681360  0.4275670  0.5937770    0.00000       Uiso       1.00
     H1028          H  0.4681360  0.9275670  0.0937770    0.00000       Uiso       1.00
     H1029          H  0.4062230  0.4681360  0.0724330    0.00000       Uiso       1.00
     H1030          H  0.9062230  0.9681360  0.5724330    0.00000       Uiso       1.00
     H1031          H  0.9062230  0.0318640  0.9275670    0.00000       Uiso       1.00
     H1032          H  0.4062230  0.5318640  0.4275670    0.00000       Uiso       1.00
     H1033          H  0.0937770  0.5318640  0.5724330    0.00000       Uiso       1.00
     H1034          H  0.5937770  0.0318640  0.0724330    0.00000       Uiso       1.00
     H1035          H  0.5937770  0.9681360  0.4275670    0.00000       Uiso       1.00
     H1036          H  0.0937770  0.4681360  0.9275670    0.00000       Uiso       1.00
     H1037          H  0.0724330  0.4062230  0.4681360    0.00000       Uiso       1.00
     H1038          H  0.5724330  0.9062230  0.9681360    0.00000       Uiso       1.00
     H1039          H  0.9275670  0.9062230  0.0318640    0.00000       Uiso       1.00
     H1040          H  0.4275670  0.4062230  0.5318640    0.00000       Uiso       1.00
     H1041          H  0.5724330  0.0937770  0.5318640    0.00000       Uiso       1.00
     H1042          H  0.0724330  0.5937770  0.0318640    0.00000       Uiso       1.00
     H1043          H  0.4275670  0.5937770  0.9681360    0.00000       Uiso       1.00
     H1044          H  0.9275670  0.0937770  0.4681360    0.00000       Uiso       1.00
     H1045          H  0.3224330  0.7181360  0.6562230    0.00000       Uiso       1.00
     H1046          H  0.8224331  0.2181360  0.1562230    0.00000       Uiso       1.00
     H1047          H  0.1775670  0.2818640  0.1562230    0.00000       Uiso       1.00
     H1048          H  0.6775670  0.7818640  0.6562230    0.00000       Uiso       1.00
     H1049          H  0.8224331  0.7818640  0.3437770    0.00000       Uiso       1.00
     H1050          H  0.3224330  0.2818640  0.8437770    0.00000       Uiso       1.00
     H1051          H  0.6775670  0.2181360  0.8437770    0.00000       Uiso       1.00
     H1052          H  0.1775670  0.7181360  0.3437770    0.00000       Uiso       1.00
     H1053          H  0.7181360  0.6562230  0.3224330    0.00000       Uiso       1.00
     H1054          H  0.2181360  0.1562230  0.8224331    0.00000       Uiso       1.00
     H1055          H  0.2818640  0.1562230  0.1775670    0.00000       Uiso       1.00
     H1056          H  0.7818640  0.6562230  0.6775670    0.00000       Uiso       1.00
     H1057          H  0.7818640  0.3437770  0.8224331    0.00000       Uiso       1.00
     H1058          H  0.2818640  0.8437770  0.3224330    0.00000       Uiso       1.00
     H1059          H  0.2181360  0.8437770  0.6775670    0.00000       Uiso       1.00
     H1060          H  0.7181360  0.3437770  0.1775670    0.00000       Uiso       1.00
     H1061          H  0.6562230  0.3224330  0.7181360    0.00000       Uiso       1.00
     H1062          H  0.1562230  0.8224331  0.2181360    0.00000       Uiso       1.00
     H1063          H  0.1562230  0.1775670  0.2818640    0.00000       Uiso       1.00
     H1064          H  0.6562230  0.6775670  0.7818640    0.00000       Uiso       1.00
     H1065          H  0.3437770  0.8224331  0.7818640    0.00000       Uiso       1.00
     H1066          H  0.8437770  0.3224330  0.2818640    0.00000       Uiso       1.00
     H1067          H  0.8437770  0.6775670  0.2181360    0.00000       Uiso       1.00
     H1068          H  0.3437770  0.1775670  0.7181360    0.00000       Uiso       1.00
     H1069          H  0.4890070  0.1179300  0.4799290    0.00000       Uiso       1.00
     H1070          H  0.9890070  0.6179300  0.9799290    0.00000       Uiso       1.00
     H1071          H  0.0109930  0.8820700  0.9799290    0.00000       Uiso       1.00
     H1072          H  0.5109930  0.3820700  0.4799290    0.00000       Uiso       1.00
     H1073          H  0.5109930  0.6179300  0.0200710    0.00000       Uiso       1.00
     H1074          H  0.0109930  0.1179300  0.5200720    0.00000       Uiso       1.00
     H1075          H  0.9890070  0.3820700  0.5200720    0.00000       Uiso       1.00
     H1076          H  0.4890070  0.8820700  0.0200710    0.00000       Uiso       1.00
     H1077          H  0.4799290  0.4890070  0.1179300    0.00000       Uiso       1.00
     H1078          H  0.9799290  0.9890070  0.6179300    0.00000       Uiso       1.00
     H1079          H  0.9799290  0.0109930  0.8820700    0.00000       Uiso       1.00
     H1080          H  0.4799290  0.5109930  0.3820700    0.00000       Uiso       1.00
     H1081          H  0.0200710  0.5109930  0.6179300    0.00000       Uiso       1.00
     H1082          H  0.5200720  0.0109930  0.1179300    0.00000       Uiso       1.00
     H1083          H  0.5200720  0.9890070  0.3820700    0.00000       Uiso       1.00
     H1084          H  0.0200710  0.4890070  0.8820700    0.00000       Uiso       1.00
     H1085          H  0.1179300  0.4799290  0.4890070    0.00000       Uiso       1.00
     H1086          H  0.6179300  0.9799290  0.9890070    0.00000       Uiso       1.00
     H1087          H  0.8820700  0.9799290  0.0109930    0.00000       Uiso       1.00
     H1088          H  0.3820700  0.4799290  0.5109930    0.00000       Uiso       1.00
     H1089          H  0.6179300  0.0200710  0.5109930    0.00000       Uiso       1.00
     H1090          H  0.1179300  0.5200720  0.0109930    0.00000       Uiso       1.00
     H1091          H  0.3820700  0.5200720  0.9890070    0.00000       Uiso       1.00
     H1092          H  0.8820700  0.0200710  0.4890070    0.00000       Uiso       1.00
     H1093          H  0.3679300  0.7390070  0.7299290    0.00000       Uiso       1.00
     H1094          H  0.8679300  0.2390070  0.2299290    0.00000       Uiso       1.00
     H1095          H  0.1320700  0.2609930  0.2299290    0.00000       Uiso       1.00
     H1096          H  0.6320700  0.7609940  0.7299290    0.00000       Uiso       1.00
     H1097          H  0.8679300  0.7609940  0.2700720    0.00000       Uiso       1.00
     H1098          H  0.3679300  0.2609930  0.7700720    0.00000       Uiso       1.00
     H1099          H  0.6320700  0.2390070  0.7700720    0.00000       Uiso       1.00
     H1100          H  0.1320700  0.7390070  0.2700720    0.00000       Uiso       1.00
     H1101          H  0.7390070  0.7299290  0.3679300    0.00000       Uiso       1.00
     H1102          H  0.2390070  0.2299290  0.8679300    0.00000       Uiso       1.00
     H1103          H  0.2609930  0.2299290  0.1320700    0.00000       Uiso       1.00
     H1104          H  0.7609940  0.7299290  0.6320700    0.00000       Uiso       1.00
     H1105          H  0.7609940  0.2700720  0.8679300    0.00000       Uiso       1.00
     H1106          H  0.2609930  0.7700720  0.3679300    0.00000       Uiso       1.00
     H1107          H  0.2390070  0.7700720  0.6320700    0.00000       Uiso       1.00
     H1108          H  0.7390070  0.2700720  0.1320700    0.00000       Uiso       1.00
     H1109          H  0.7299290  0.3679300  0.7390070    0.00000       Uiso       1.00
     H1110          H  0.2299290  0.8679300  0.2390070    0.00000       Uiso       1.00
     H1111          H  0.2299290  0.1320700  0.2609930    0.00000       Uiso       1.00
     H1112          H  0.7299290  0.6320700  0.7609940    0.00000       Uiso       1.00
     H1113          H  0.2700720  0.8679300  0.7609940    0.00000       Uiso       1.00
     H1114          H  0.7700720  0.3679300  0.2609930    0.00000       Uiso       1.00
     H1115          H  0.7700720  0.6320700  0.2390070    0.00000       Uiso       1.00
     H1116          H  0.2700720  0.1320700  0.7390070    0.00000       Uiso       1.00
     Ni111         Ni  0.4564040  0.4564040  0.4564040    0.00000       Uiso       1.00
     Ni111         Ni  0.9564040  0.9564040  0.9564040    0.00000       Uiso       1.00
     Ni111         Ni  0.0435960  0.5435960  0.9564040    0.00000       Uiso       1.00
     Ni112         Ni  0.5435960  0.0435960  0.4564040    0.00000       Uiso       1.00
     Ni112         Ni  0.5435960  0.9564040  0.0435960    0.00000       Uiso       1.00
     Ni112         Ni  0.0435960  0.4564040  0.5435960    0.00000       Uiso       1.00
     Ni112         Ni  0.9564040  0.0435960  0.5435960    0.00000       Uiso       1.00
     Ni112         Ni  0.4564040  0.5435960  0.0435960    0.00000       Uiso       1.00
     Ni112         Ni  0.7064040  0.7064040  0.7064040    0.00000       Uiso       1.00
     Ni112         Ni  0.2064040  0.2064040  0.2064040    0.00000       Uiso       1.00
     Ni112         Ni  0.7935961  0.2935960  0.2064040    0.00000       Uiso       1.00
     Ni112         Ni  0.2935960  0.7935961  0.7064040    0.00000       Uiso       1.00
     Ni112         Ni  0.2064040  0.7935961  0.2935960    0.00000       Uiso       1.00
     Ni113         Ni  0.7064040  0.2935960  0.7935961    0.00000       Uiso       1.00
     Ni113         Ni  0.2935960  0.2064040  0.7935961    0.00000       Uiso       1.00
     Ni113         Ni  0.7935961  0.7064040  0.2935960    0.00000       Uiso       1.00
