data_ATFG-COF
_audit_creation_date              0000-00-00
_audit_creation_method            'LanYouShi'
_symmetry_space_group_name_H-M    'P1'
_cell_length_a                    15.4975004
_cell_length_b                    15.4975004
_cell_length_c                    3.5999999
_cell_angle_alpha                 90.0000000
_cell_angle_beta                  90.0000000
_cell_angle_gamma                 120.0000000
loop_
_atom_site_label
_atom_site_type_symbol
_atom_site_fract_x
_atom_site_fract_y
_atom_site_fract_z
_atom_site_U_iso_or_equiv
_atom_site_adp_type
_atom_site_occupancy
        N1          N  0.5453390  0.5397870  1.3888890    0.00000       Uiso       1.00
        N2          N  0.4546620  0.4602140  1.3888890    0.00000       Uiso       1.00
        C3          C  0.6322900  0.5378120  1.3888890    0.00000       Uiso       1.00
        C4          C  0.3677110  0.4621890  1.3888890    0.00000       Uiso       1.00
        H5          H  0.6349310  0.4730480  1.3888890    0.00000       Uiso       1.00
        H6          H  0.3650700  0.5269530  1.3888890    0.00000       Uiso       1.00
        N7          N  0.9602140  0.5055520  1.3888890    0.00000       Uiso       1.00
        N8          N  0.0397870  0.4944490  1.3888890    0.00000       Uiso       1.00
        C9          C  0.9621900  0.5944790  1.3888890    0.00000       Uiso       1.00
       C10          C  0.0378110  0.4055220  1.3888890    0.00000       Uiso       1.00
       H11          H  0.0269530  0.6618840  1.3888890    0.00000       Uiso       1.00
       H12          H  0.9730480  0.3381170  1.3888880    0.00000       Uiso       1.00
       N13          N  0.9944500  0.9546630  1.3888900    0.00000       Uiso       1.00
       N14          N  0.0055520  0.0453380  1.3888911    0.00000       Uiso       1.00
       C15          C  0.9055230  0.8677120  1.3888900    0.00000       Uiso       1.00
       C16          C  0.0944780  0.1322890  1.3888911    0.00000       Uiso       1.00
       H17          H  0.8381180  0.8650710  1.3888900    0.00000       Uiso       1.00
       H18          H  0.1618830  0.1349300  1.3888911    0.00000       Uiso       1.00
       C19          C  0.7994170  0.5642680  1.3888890    0.00000       Uiso       1.00
       C20          C  0.7285240  0.5966150  1.3888890    0.00000       Uiso       1.00
       O21          O  0.7730200  0.4801490  1.3888890    0.00000       Uiso       1.00
       C22          C  0.7648520  0.7005850  1.3888890    0.00000       Uiso       1.00
       C23          C  0.8680920  0.7714780  1.3888900    0.00000       Uiso       1.00
       O24          O  0.7071310  0.7269821  1.3888890    0.00000       Uiso       1.00
       C25          C  0.9357340  0.7351500  1.3888900    0.00000       Uiso       1.00
       C26          C  0.9033860  0.6319090  1.3888890    0.00000       Uiso       1.00
       O27          O  0.0198510  0.7928710  1.3888900    0.00000       Uiso       1.00
       C28          C  0.2005840  0.4357330  1.3888890    0.00000       Uiso       1.00
       C29          C  0.2714770  0.4033860  1.3888890    0.00000       Uiso       1.00
       O30          O  0.2269810  0.5198520  1.3888890    0.00000       Uiso       1.00
       C31          C  0.2351490  0.2994160  1.3888890    0.00000       Uiso       1.00
       C32          C  0.1319090  0.2285230  1.3888900    0.00000       Uiso       1.00
       O33          O  0.2928710  0.2730200  1.3888890    0.00000       Uiso       1.00
       C34          C  0.0642670  0.2648510  1.3888900    0.00000       Uiso       1.00
       C35          C  0.0966150  0.3680920  1.3888890    0.00000       Uiso       1.00
       O36          O  0.9801500  0.2071300  1.3888900    0.00000       Uiso       1.00
