data_NUS-3
_audit_creation_date              0000-00-00
_audit_creation_method            'LanYouShi'
_symmetry_space_group_name_H-M    'P1'
_cell_length_a                    29.8530006
_cell_length_b                    29.8530006
_cell_length_c                    3.5999999
_cell_angle_alpha                 90.0000000
_cell_angle_beta                  90.0000000
_cell_angle_gamma                 60.0000000
loop_
_atom_site_label
_atom_site_type_symbol
_atom_site_fract_x
_atom_site_fract_y
_atom_site_fract_z
_atom_site_U_iso_or_equiv
_atom_site_adp_type
_atom_site_occupancy
        H1          H  0.3241240  0.6656190  1.1434140    0.00000       Uiso       1.00
        H2          H  0.3465620  0.5768910  1.6413389    0.00000       Uiso       1.00
        H3          H  0.6758780  0.3343820  1.1434140    0.00000       Uiso       1.00
        H4          H  0.6534400  0.4231110  1.6413389    0.00000       Uiso       1.00
        H5          H  0.6758780  0.3343820  1.6343640    0.00000       Uiso       1.00
        H6          H  0.6534400  0.4231110  1.1364390    0.00000       Uiso       1.00
        H7          H  0.3241240  0.6656190  1.6343640    0.00000       Uiso       1.00
        H8          H  0.3465620  0.5768910  1.1364390    0.00000       Uiso       1.00
        H9          H  0.7218240  0.3434630  1.3888890    0.00000       Uiso       1.00
       H10          H  0.5241620  0.4118520  1.3888890    0.00000       Uiso       1.00
       H11          H  0.5276690  0.6087490  1.3888890    0.00000       Uiso       1.00
       H12          H  0.5529870  0.6696880  1.3888890    0.00000       Uiso       1.00
       C13          C  0.4488350  0.5390130  1.3888890    0.00000       Uiso       1.00
       C14          C  0.4884280  0.5488630  1.3888890    0.00000       Uiso       1.00
       C15          C  0.5778900  0.5303000  1.3888890    0.00000       Uiso       1.00
       C16          C  0.5400240  0.5122430  1.3888890    0.00000       Uiso       1.00
       C17          C  0.5915310  0.6398030  1.3888890    0.00000       Uiso       1.00
       C18          C  0.6465000  0.4075080  1.3888890    0.00000       Uiso       1.00
       O19          O  0.5973061  0.4150410  1.3888890    0.00000       Uiso       1.00
       C20          C  0.6825300  0.3513860  1.3888890    0.00000       Uiso       1.00
       N21          N  0.5645100  0.5800810  1.3888890    0.00000       Uiso       1.00
       N22          N  0.6018200  0.5935520  1.3888890    0.00000       Uiso       1.00
       O23          O  0.6221920  0.5006510  1.3888890    0.00000       Uiso       1.00
       H24          H  0.2781780  0.6565390  1.3888890    0.00000       Uiso       1.00
       H25          H  0.4758390  0.5881490  1.3888890    0.00000       Uiso       1.00
       H26          H  0.4723320  0.3912520  1.3888890    0.00000       Uiso       1.00
       H27          H  0.4470150  0.3303130  1.3888890    0.00000       Uiso       1.00
       C28          C  0.5511660  0.4609880  1.3888890    0.00000       Uiso       1.00
       C29          C  0.5115740  0.4511390  1.3888890    0.00000       Uiso       1.00
       C30          C  0.4221110  0.4697010  1.3888890    0.00000       Uiso       1.00
       C31          C  0.4599780  0.4877590  1.3888890    0.00000       Uiso       1.00
       C32          C  0.4084710  0.3601980  1.3888890    0.00000       Uiso       1.00
       C33          C  0.3535010  0.5924930  1.3888890    0.00000       Uiso       1.00
       O34          O  0.4026950  0.5849610  1.3888890    0.00000       Uiso       1.00
       C35          C  0.3174710  0.6486160  1.3888890    0.00000       Uiso       1.00
       N36          N  0.4354920  0.4199200  1.3888890    0.00000       Uiso       1.00
       N37          N  0.3981810  0.4064500  1.3888890    0.00000       Uiso       1.00
       O38          O  0.3778090  0.4993500  1.3888890    0.00000       Uiso       1.00
       H39          H  0.0102590  0.3241240  1.1434140    0.00000       Uiso       1.00
       H40          H  0.0765490  0.3465620  1.6413389    0.00000       Uiso       1.00
       H41          H  0.9897431  0.6758779  1.1434140    0.00000       Uiso       1.00
       H42          H  0.9234530  0.6534400  1.6413389    0.00000       Uiso       1.00
       H43          H  0.9897431  0.6758779  1.6343640    0.00000       Uiso       1.00
       H44          H  0.9234530  0.6534400  1.1364390    0.00000       Uiso       1.00
       H45          H  0.0102590  0.3241240  1.6343640    0.00000       Uiso       1.00
       H46          H  0.0765490  0.3465620  1.1364390    0.00000       Uiso       1.00
       H47          H  0.9347160  0.7218240  1.3888890    0.00000       Uiso       1.00
       H48          H  0.0639870  0.5241620  1.3888890    0.00000       Uiso       1.00
       H49          H  0.8635840  0.5276690  1.3888890    0.00000       Uiso       1.00
       H50          H  0.7773280  0.5529870  1.3888890    0.00000       Uiso       1.00
       C51          C  0.0121530  0.4488350  1.3888890    0.00000       Uiso       1.00
       C52          C  0.9627119  0.4884280  1.3888890    0.00000       Uiso       1.00
       C53          C  0.8918121  0.5778900  1.3888890    0.00000       Uiso       1.00
       C54          C  0.9477370  0.5400240  1.3888890    0.00000       Uiso       1.00
       C55          C  0.7686690  0.5915310  1.3888890    0.00000       Uiso       1.00
       C56          C  0.9459949  0.6465000  1.3888890    0.00000       Uiso       1.00
       O57          O  0.9876560  0.5973060  1.3888890    0.00000       Uiso       1.00
       C58          C  0.9660869  0.6825300  1.3888890    0.00000       Uiso       1.00
       N59          N  0.8554119  0.5645100  1.3888890    0.00000       Uiso       1.00
       N60          N  0.8046310  0.6018200  1.3888890    0.00000       Uiso       1.00
       O61          O  0.8771589  0.6221920  1.3888890    0.00000       Uiso       1.00
       H62          H  0.0652850  0.2781780  1.3888890    0.00000       Uiso       1.00
       H63          H  0.9360140  0.4758390  1.3888890    0.00000       Uiso       1.00
       H64          H  0.1364170  0.4723320  1.3888890    0.00000       Uiso       1.00
       H65          H  0.2226740  0.4470150  1.3888890    0.00000       Uiso       1.00
       C66          C  0.9878480  0.5511660  1.3888890    0.00000       Uiso       1.00
       C67          C  0.0372890  0.5115740  1.3888890    0.00000       Uiso       1.00
       C68          C  0.1081890  0.4221110  1.3888890    0.00000       Uiso       1.00
       C69          C  0.0522650  0.4599780  1.3888890    0.00000       Uiso       1.00
       C70          C  0.2313320  0.4084710  1.3888890    0.00000       Uiso       1.00
       C71          C  0.0540070  0.3535010  1.3888890    0.00000       Uiso       1.00
       O72          O  0.0123460  0.4026950  1.3888890    0.00000       Uiso       1.00
       C73          C  0.0339140  0.3174710  1.3888890    0.00000       Uiso       1.00
       N74          N  0.1445900  0.4354920  1.3888890    0.00000       Uiso       1.00
       N75          N  0.1953700  0.3981810  1.3888890    0.00000       Uiso       1.00
       O76          O  0.1228420  0.3778090  1.3888890    0.00000       Uiso       1.00
       H77          H  0.6656190  0.0102590  1.1434140    0.00000       Uiso       1.00
       H78          H  0.5768910  0.0765490  1.6413389    0.00000       Uiso       1.00
       H79          H  0.3343820  0.9897430  1.1434140    0.00000       Uiso       1.00
       H80          H  0.4231110  0.9234530  1.6413389    0.00000       Uiso       1.00
       H81          H  0.3343820  0.9897430  1.6343640    0.00000       Uiso       1.00
       H82          H  0.4231110  0.9234530  1.1364390    0.00000       Uiso       1.00
       H83          H  0.6656190  0.0102590  1.6343640    0.00000       Uiso       1.00
       H84          H  0.5768910  0.0765490  1.1364390    0.00000       Uiso       1.00
       H85          H  0.3434630  0.9347160  1.3888890    0.00000       Uiso       1.00
       H86          H  0.4118520  0.0639870  1.3888890    0.00000       Uiso       1.00
       H87          H  0.6087490  0.8635840  1.3888890    0.00000       Uiso       1.00
       H88          H  0.6696880  0.7773280  1.3888890    0.00000       Uiso       1.00
       C89          C  0.5390130  0.0121530  1.3888890    0.00000       Uiso       1.00
       C90          C  0.5488630  0.9627120  1.3888890    0.00000       Uiso       1.00
       C91          C  0.5303000  0.8918120  1.3888890    0.00000       Uiso       1.00
       C92          C  0.5122430  0.9477360  1.3888890    0.00000       Uiso       1.00
       C93          C  0.6398030  0.7686690  1.3888890    0.00000       Uiso       1.00
       C94          C  0.4075080  0.9459950  1.3888890    0.00000       Uiso       1.00
       O95          O  0.4150410  0.9876561  1.3888890    0.00000       Uiso       1.00
       C96          C  0.3513860  0.9660870  1.3888890    0.00000       Uiso       1.00
       N97          N  0.5800810  0.8554121  1.3888890    0.00000       Uiso       1.00
       N98          N  0.5935520  0.8046310  1.3888890    0.00000       Uiso       1.00
       O99          O  0.5006510  0.8771591  1.3888890    0.00000       Uiso       1.00
      H100          H  0.6565390  0.0652850  1.3888890    0.00000       Uiso       1.00
      H101          H  0.5881490  0.9360150  1.3888890    0.00000       Uiso       1.00
      H102          H  0.3912520  0.1364170  1.3888890    0.00000       Uiso       1.00
      H103          H  0.3303130  0.2226740  1.3888890    0.00000       Uiso       1.00
      C104          C  0.4609880  0.9878480  1.3888890    0.00000       Uiso       1.00
      C105          C  0.4511390  0.0372890  1.3888890    0.00000       Uiso       1.00
      C106          C  0.4697010  0.1081890  1.3888890    0.00000       Uiso       1.00
      C107          C  0.4877590  0.0522650  1.3888890    0.00000       Uiso       1.00
      C108          C  0.3601980  0.2313320  1.3888890    0.00000       Uiso       1.00
      C109          C  0.5924930  0.0540070  1.3888890    0.00000       Uiso       1.00
      O110          O  0.5849600  0.0123460  1.3888890    0.00000       Uiso       1.00
      C111          C  0.6486160  0.0339140  1.3888890    0.00000       Uiso       1.00
      N112          N  0.4199200  0.1445900  1.3888890    0.00000       Uiso       1.00
      N113          N  0.4064500  0.1953700  1.3888890    0.00000       Uiso       1.00
      O114          O  0.4993500  0.1228420  1.3888890    0.00000       Uiso       1.00
      C115          C  0.6820520  0.6140050  1.3888890    0.00000       Uiso       1.00
      C116          C  0.6284970  0.6509460  1.3888890    0.00000       Uiso       1.00
      O117          O  0.6955640  0.5703790  1.3888890    0.00000       Uiso       1.00
      C118          C  0.6140050  0.7039460  1.3888890    0.00000       Uiso       1.00
      C119          C  0.6509460  0.7205600  1.3888890    0.00000       Uiso       1.00
      O120          O  0.5703790  0.7340590  1.3888890    0.00000       Uiso       1.00
      C121          C  0.7039460  0.6820520  1.3888890    0.00000       Uiso       1.00
      C122          C  0.7205600  0.6284969  1.3888890    0.00000       Uiso       1.00
      O123          O  0.7340590  0.6955640  1.3888890    0.00000       Uiso       1.00
      C124          C  0.3179490  0.3859970  1.3888890    0.00000       Uiso       1.00
      C125          C  0.3715040  0.3490550  1.3888890    0.00000       Uiso       1.00
      O126          O  0.3044370  0.4296220  1.3888890    0.00000       Uiso       1.00
      C127          C  0.3859970  0.2960560  1.3888890    0.00000       Uiso       1.00
      C128          C  0.3490550  0.2794420  1.3888890    0.00000       Uiso       1.00
      O129          O  0.4296220  0.2659420  1.3888890    0.00000       Uiso       1.00
      C130          C  0.2960560  0.3179490  1.3888890    0.00000       Uiso       1.00
      C131          C  0.2794420  0.3715040  1.3888890    0.00000       Uiso       1.00
      O132          O  0.2659420  0.3044370  1.3888890    0.00000       Uiso       1.00
