data_Pc-PBBA-COF-ff
_audit_creation_date              0000-00-00
_audit_creation_method            'LanYouShi'
_symmetry_space_group_name_H-M    'P1'
_cell_length_a                    22.8500004
_cell_length_b                    22.8500004
_cell_length_c                    3.3399999
_cell_angle_alpha                 90.0000000
_cell_angle_beta                  90.0000000
_cell_angle_gamma                 90.0000000
loop_
_atom_site_label
_atom_site_type_symbol
_atom_site_fract_x
_atom_site_fract_y
_atom_site_fract_z
_atom_site_U_iso_or_equiv
_atom_site_adp_type
_atom_site_occupancy
        C1          C  0.4478500  0.0303830  0.5000000    0.00000       Uiso       1.00
        C2          C  0.5308800  0.2173330  0.5000000    0.00000       Uiso       1.00
        C3          C  0.4379000  0.2690330  0.5000000    0.00000       Uiso       1.00
        C4          C  0.4706100  0.3202630  0.5000000    0.00000       Uiso       1.00
        C5          C  0.4469100  0.3775430  0.5000000    0.00000       Uiso       1.00
        O6          O  0.4469100  0.1619130  0.5000000    0.00000       Uiso       1.00
        H7          H  0.4062990  0.0532580  0.5000000    0.00000       Uiso       1.00
        H8          H  0.3905340  0.2693350  0.5000000    0.00000       Uiso       1.00
        C9          C  0.9696400  0.4478730  0.5000000    0.00000       Uiso       1.00
       C10          C  0.7826900  0.5309030  0.5000000    0.00000       Uiso       1.00
       C11          C  0.7309900  0.4379230  0.5000000    0.00000       Uiso       1.00
       C12          C  0.6797600  0.4706330  0.5000000    0.00000       Uiso       1.00
       C13          C  0.6224800  0.4469330  0.5000000    0.00000       Uiso       1.00
       O14          O  0.8381100  0.4469330  0.5000000    0.00000       Uiso       1.00
       H15          H  0.9467660  0.4063220  0.5000000    0.00000       Uiso       1.00
       H16          H  0.7306880  0.3905570  0.5000000    0.00000       Uiso       1.00
       N17          N  0.3948400  0.3948630  0.5000000    0.00000       Uiso       1.00
       C18          C  0.5521500  0.9696631  0.5000000    0.00000       Uiso       1.00
       C19          C  0.4691200  0.7827130  0.5000000    0.00000       Uiso       1.00
       C20          C  0.5621000  0.7310130  0.5000000    0.00000       Uiso       1.00
       C21          C  0.5293900  0.6797830  0.5000000    0.00000       Uiso       1.00
       C22          C  0.5530900  0.6225030  0.5000000    0.00000       Uiso       1.00
       O23          O  0.5530900  0.8381330  0.5000000    0.00000       Uiso       1.00
       H24          H  0.5937020  0.9467880  0.5000000    0.00000       Uiso       1.00
       H25          H  0.6094670  0.7307110  0.5000000    0.00000       Uiso       1.00
       C26          C  0.0303600  0.5521730  0.5000000    0.00000       Uiso       1.00
       C27          C  0.2173100  0.4691430  0.5000000    0.00000       Uiso       1.00
       C28          C  0.2690100  0.5621230  0.5000000    0.00000       Uiso       1.00
       C29          C  0.3202400  0.5294130  0.5000000    0.00000       Uiso       1.00
       C30          C  0.3775200  0.5531130  0.5000000    0.00000       Uiso       1.00
       O31          O  0.1618900  0.5531130  0.5000000    0.00000       Uiso       1.00
       H32          H  0.0532350  0.5937240  0.5000000    0.00000       Uiso       1.00
       H33          H  0.2693120  0.6094890  0.5000000    0.00000       Uiso       1.00
       N34          N  0.6051600  0.6051830  0.5000000    0.00000       Uiso       1.00
       C35          C  0.5521500  0.0303830  0.5000000    0.00000       Uiso       1.00
       C36          C  0.4691200  0.2173330  0.5000000    0.00000       Uiso       1.00
       C37          C  0.5621000  0.2690330  0.5000000    0.00000       Uiso       1.00
       C38          C  0.5293900  0.3202630  0.5000000    0.00000       Uiso       1.00
       C39          C  0.5530900  0.3775430  0.5000000    0.00000       Uiso       1.00
       O40          O  0.5530900  0.1619130  0.5000000    0.00000       Uiso       1.00
       H41          H  0.5937020  0.0532580  0.5000000    0.00000       Uiso       1.00
       H42          H  0.6094670  0.2693350  0.5000000    0.00000       Uiso       1.00
       C43          C  0.0303600  0.4478730  0.5000000    0.00000       Uiso       1.00
       C44          C  0.2173100  0.5309030  0.5000000    0.00000       Uiso       1.00
       C45          C  0.2690100  0.4379230  0.5000000    0.00000       Uiso       1.00
       C46          C  0.3202400  0.4706330  0.5000000    0.00000       Uiso       1.00
       C47          C  0.3775200  0.4469330  0.5000000    0.00000       Uiso       1.00
       O48          O  0.1618900  0.4469330  0.5000000    0.00000       Uiso       1.00
       H49          H  0.0532350  0.4063220  0.5000000    0.00000       Uiso       1.00
       H50          H  0.2693120  0.3905570  0.5000000    0.00000       Uiso       1.00
       N51          N  0.6051600  0.3948630  0.5000000    0.00000       Uiso       1.00
       C52          C  0.4478500  0.9696631  0.5000000    0.00000       Uiso       1.00
       C53          C  0.5308800  0.7827130  0.5000000    0.00000       Uiso       1.00
       C54          C  0.4379000  0.7310130  0.5000000    0.00000       Uiso       1.00
       C55          C  0.4706100  0.6797830  0.5000000    0.00000       Uiso       1.00
       C56          C  0.4469100  0.6225030  0.5000000    0.00000       Uiso       1.00
       O57          O  0.4469100  0.8381330  0.5000000    0.00000       Uiso       1.00
       H58          H  0.4062990  0.9467880  0.5000000    0.00000       Uiso       1.00
       H59          H  0.3905340  0.7307110  0.5000000    0.00000       Uiso       1.00
       C60          C  0.9696400  0.5521730  0.5000000    0.00000       Uiso       1.00
       C61          C  0.7826900  0.4691430  0.5000000    0.00000       Uiso       1.00
       C62          C  0.7309900  0.5621230  0.5000000    0.00000       Uiso       1.00
       C63          C  0.6797600  0.5294130  0.5000000    0.00000       Uiso       1.00
       C64          C  0.6224800  0.5531130  0.5000000    0.00000       Uiso       1.00
       O65          O  0.8381100  0.5531130  0.5000000    0.00000       Uiso       1.00
       H66          H  0.9467660  0.5937240  0.5000000    0.00000       Uiso       1.00
       H67          H  0.7306880  0.6094890  0.5000000    0.00000       Uiso       1.00
       N68          N  0.3948400  0.6051830  0.5000000    0.00000       Uiso       1.00
       C69          C  0.5000000  0.0604430  0.5000000    0.00000       Uiso       1.00
       B70          B  0.5000000  0.1275230  0.5000000    0.00000       Uiso       1.00
       N71          N  0.5000000  0.4134530  0.5000000    0.00000       Uiso       1.00
       C72          C  0.5000000  0.9396030  0.5000000    0.00000       Uiso       1.00
       B73          B  0.5000000  0.8725230  0.5000000    0.00000       Uiso       1.00
       N74          N  0.5000000  0.5865930  0.5000000    0.00000       Uiso       1.00
       C75          C  0.9395800  0.5000230  0.5000000    0.00000       Uiso       1.00
       B76          B  0.8724999  0.5000230  0.5000000    0.00000       Uiso       1.00
       N77          N  0.5865700  0.5000230  0.5000000    0.00000       Uiso       1.00
       H78          H  0.4570820  0.5000230  0.5000000    0.00000       Uiso       1.00
       C79          C  0.0604200  0.5000230  0.5000000    0.00000       Uiso       1.00
       B80          B  0.1275000  0.5000230  0.5000000    0.00000       Uiso       1.00
       N81          N  0.4134300  0.5000230  0.5000000    0.00000       Uiso       1.00
       H82          H  0.5429180  0.5000230  0.5000000    0.00000       Uiso       1.00
