data_PCTF-2
_audit_creation_date              0000-00-00
_audit_creation_method            'LanYouShi'
_symmetry_space_group_name_H-M    'P1'
_cell_length_a                    26.9780006
_cell_length_b                    47.3569984
_cell_length_c                    4.2270999
_cell_angle_alpha                 90.0000000
_cell_angle_beta                  90.6110001
_cell_angle_gamma                 90.0000000
loop_
_atom_site_label
_atom_site_type_symbol
_atom_site_fract_x
_atom_site_fract_y
_atom_site_fract_z
_atom_site_U_iso_or_equiv
_atom_site_adp_type
_atom_site_occupancy
        C1          C  0.5440840  0.6900080  0.5191800    0.00000       Uiso       1.00
        C2          C  0.0440840  0.1900080  0.5191800    0.00000       Uiso       1.00
        C3          C  0.4559160  0.6900080  0.4808200    0.00000       Uiso       1.00
        C4          C  0.9559160  0.1900080  0.4808200    0.00000       Uiso       1.00
        C5          C  0.5000000  0.7335460  0.5000000    0.00000       Uiso       1.00
        C6          C  0.0000000  0.2335460  0.5000000    0.00000       Uiso       1.00
        N7          N  0.5428650  0.7186380  0.5190260    0.00000       Uiso       1.00
        N8          N  0.0428650  0.2186380  0.5190260    0.00000       Uiso       1.00
        N9          N  0.4571350  0.7186380  0.4809740    0.00000       Uiso       1.00
       N10          N  0.9571350  0.2186380  0.4809740    0.00000       Uiso       1.00
       N11          N  0.5000000  0.6763520  0.5000000    0.00000       Uiso       1.00
       N12          N  0.0000000  0.1763520  0.5000000    0.00000       Uiso       1.00
       C13          C  0.5893630  0.6749330  0.5364860    0.00000       Uiso       1.00
       C14          C  0.0893630  0.1749330  0.5364860    0.00000       Uiso       1.00
       C15          C  0.4106370  0.6749330  0.4635140    0.00000       Uiso       1.00
       C16          C  0.9106370  0.1749330  0.4635140    0.00000       Uiso       1.00
       C17          C  0.5000000  0.7634320  0.5000000    0.00000       Uiso       1.00
       C18          C  0.0000000  0.2634320  0.5000000    0.00000       Uiso       1.00
       C19          C  0.6354920  0.6886890  0.4938800    0.00000       Uiso       1.00
       C20          C  0.1354920  0.1886890  0.4938800    0.00000       Uiso       1.00
       C21          C  0.3645080  0.6886890  0.5061200    0.00000       Uiso       1.00
       C22          C  0.8645080  0.1886890  0.5061200    0.00000       Uiso       1.00
       C23          C  0.4580440  0.7789690  0.3969450    0.00000       Uiso       1.00
       C24          C  0.9580440  0.2789690  0.3969450    0.00000       Uiso       1.00
       C25          C  0.5419560  0.7789690  0.6030550    0.00000       Uiso       1.00
       C26          C  0.0419560  0.2789690  0.6030550    0.00000       Uiso       1.00
       C27          C  0.4097310  0.6454360  0.4058190    0.00000       Uiso       1.00
       C28          C  0.9097310  0.1454360  0.4058190    0.00000       Uiso       1.00
       C29          C  0.5902690  0.6454360  0.5941810    0.00000       Uiso       1.00
       C30          C  0.0902690  0.1454360  0.5941810    0.00000       Uiso       1.00
       C31          C  0.6351090  0.6303030  0.6032680    0.00000       Uiso       1.00
       C32          C  0.1351090  0.1303030  0.6032680    0.00000       Uiso       1.00
       C33          C  0.3648910  0.6303030  0.3967320    0.00000       Uiso       1.00
       C34          C  0.8648909  0.1303030  0.3967320    0.00000       Uiso       1.00
       C35          C  0.5421300  0.8086960  0.5973610    0.00000       Uiso       1.00
       C36          C  0.0421300  0.3086960  0.5973610    0.00000       Uiso       1.00
       C37          C  0.4578700  0.8086960  0.4026390    0.00000       Uiso       1.00
       C38          C  0.9578701  0.3086960  0.4026390    0.00000       Uiso       1.00
       C39          C  0.3196020  0.6736160  0.4937710    0.00000       Uiso       1.00
       C40          C  0.8196020  0.1736160  0.4937710    0.00000       Uiso       1.00
       C41          C  0.6803980  0.6736160  0.5062290    0.00000       Uiso       1.00
       C42          C  0.1803980  0.1736160  0.5062290    0.00000       Uiso       1.00
       C43          C  0.9557560  0.5539230  0.5142450    0.00000       Uiso       1.00
       C44          C  0.4557560  0.0539230  0.5142450    0.00000       Uiso       1.00
       C45          C  0.0442440  0.5539230  0.4857550    0.00000       Uiso       1.00
       C46          C  0.5442440  0.0539230  0.4857550    0.00000       Uiso       1.00
       C47          C  0.9155670  0.5448940  0.7030380    0.00000       Uiso       1.00
       C48          C  0.4155670  0.0448940  0.7030380    0.00000       Uiso       1.00
       C49          C  0.0844330  0.5448940  0.2969620    0.00000       Uiso       1.00
       C50          C  0.5844330  0.0448940  0.2969620    0.00000       Uiso       1.00
       C51          C  0.8700930  0.5594470  0.7127600    0.00000       Uiso       1.00
       C52          C  0.3700940  0.0594470  0.7127600    0.00000       Uiso       1.00
       C53          C  0.1299060  0.5594470  0.2872400    0.00000       Uiso       1.00
       C54          C  0.6299059  0.0594470  0.2872400    0.00000       Uiso       1.00
       C55          C  0.8636469  0.5847170  0.5406570    0.00000       Uiso       1.00
       C56          C  0.3636470  0.0847170  0.5406570    0.00000       Uiso       1.00
       C57          C  0.1363530  0.5847170  0.4593430    0.00000       Uiso       1.00
       C58          C  0.6363530  0.0847170  0.4593430    0.00000       Uiso       1.00
       C59          C  0.9034190  0.5948530  0.3599230    0.00000       Uiso       1.00
       C60          C  0.4034190  0.0948530  0.3599230    0.00000       Uiso       1.00
       C61          C  0.0965810  0.5948530  0.6400770    0.00000       Uiso       1.00
       C62          C  0.5965810  0.0948530  0.6400770    0.00000       Uiso       1.00
       C63          C  0.9479200  0.5794580  0.3443600    0.00000       Uiso       1.00
       C64          C  0.4479200  0.0794580  0.3443600    0.00000       Uiso       1.00
       C65          C  0.0520800  0.5794580  0.6556400    0.00000       Uiso       1.00
       C66          C  0.5520800  0.0794580  0.6556400    0.00000       Uiso       1.00
       H67          H  0.9193420  0.5272410  0.8370740    0.00000       Uiso       1.00
       H68          H  0.4193420  0.0272410  0.8370740    0.00000       Uiso       1.00
       H69          H  0.0806580  0.5272410  0.1629270    0.00000       Uiso       1.00
       H70          H  0.5806580  0.0272410  0.1629270    0.00000       Uiso       1.00
       H71          H  0.8420900  0.5516790  0.8491360    0.00000       Uiso       1.00
       H72          H  0.3420900  0.0516790  0.8491360    0.00000       Uiso       1.00
       H73          H  0.1579100  0.5516790  0.1508640    0.00000       Uiso       1.00
       H74          H  0.6579100  0.0516790  0.1508640    0.00000       Uiso       1.00
       H75          H  0.9001830  0.6133280  0.2358030    0.00000       Uiso       1.00
       H76          H  0.4001830  0.1133280  0.2358030    0.00000       Uiso       1.00
       H77          H  0.0998170  0.6133280  0.7641970    0.00000       Uiso       1.00
       H78          H  0.5998170  0.1133280  0.7641970    0.00000       Uiso       1.00
       H79          H  0.9751790  0.5873220  0.2064810    0.00000       Uiso       1.00
       H80          H  0.4751790  0.0873220  0.2064810    0.00000       Uiso       1.00
       H81          H  0.0248210  0.5873220  0.7935190    0.00000       Uiso       1.00
       H82          H  0.5248210  0.0873220  0.7935190    0.00000       Uiso       1.00
       C83          C  0.9598450  0.4931710  0.3803740    0.00000       Uiso       1.00
       C84          C  0.4598450  0.9931710  0.3803740    0.00000       Uiso       1.00
       C85          C  0.0401550  0.4931710  0.6196260    0.00000       Uiso       1.00
       C86          C  0.5401550  0.9931710  0.6196260    0.00000       Uiso       1.00
       C87          C  0.9591680  0.4634440  0.3872590    0.00000       Uiso       1.00
       C88          C  0.4591680  0.9634440  0.3872590    0.00000       Uiso       1.00
       C89          C  0.0408320  0.4634440  0.6127410    0.00000       Uiso       1.00
       C90          C  0.5408320  0.9634440  0.6127410    0.00000       Uiso       1.00
       H91          H  0.9295020  0.5029630  0.2876730    0.00000       Uiso       1.00
       H92          H  0.4295020  0.0029630  0.2876730    0.00000       Uiso       1.00
       H93          H  0.0704980  0.5029630  0.7123270    0.00000       Uiso       1.00
       H94          H  0.5704980  0.0029630  0.7123270    0.00000       Uiso       1.00
       H95          H  0.9275020  0.4539950  0.3079650    0.00000       Uiso       1.00
       H96          H  0.4275020  0.9539950  0.3079650    0.00000       Uiso       1.00
       H97          H  0.0724980  0.4539950  0.6920350    0.00000       Uiso       1.00
       H98          H  0.5724980  0.9539950  0.6920350    0.00000       Uiso       1.00
       C99          C  0.8183520  0.5993880  0.5474170    0.00000       Uiso       1.00
      C100          C  0.3183520  0.0993880  0.5474170    0.00000       Uiso       1.00
      C101          C  0.1816480  0.5993880  0.4525830    0.00000       Uiso       1.00
      C102          C  0.6816481  0.0993880  0.4525830    0.00000       Uiso       1.00
      C103          C  0.7769670  0.5893210  0.3753860    0.00000       Uiso       1.00
      C104          C  0.2769670  0.0893210  0.3753860    0.00000       Uiso       1.00
      C105          C  0.2230330  0.5893210  0.6246140    0.00000       Uiso       1.00
      C106          C  0.7230330  0.0893210  0.6246140    0.00000       Uiso       1.00
      C107          C  0.7315930  0.6040030  0.3796320    0.00000       Uiso       1.00
      C108          C  0.2315930  0.1040030  0.3796320    0.00000       Uiso       1.00
      C109          C  0.2684070  0.6040030  0.6203680    0.00000       Uiso       1.00
      C110          C  0.7684070  0.1040030  0.6203680    0.00000       Uiso       1.00
      C111          C  0.7261580  0.6289880  0.5591140    0.00000       Uiso       1.00
      C112          C  0.2261580  0.1289880  0.5591140    0.00000       Uiso       1.00
      C113          C  0.2738420  0.6289880  0.4408860    0.00000       Uiso       1.00
      C114          C  0.7738420  0.1289880  0.4408860    0.00000       Uiso       1.00
      C115          C  0.7673790  0.6384240  0.7393990    0.00000       Uiso       1.00
      C116          C  0.2673790  0.1384240  0.7393990    0.00000       Uiso       1.00
      C117          C  0.2326210  0.6384240  0.2606010    0.00000       Uiso       1.00
      C118          C  0.7326210  0.1384240  0.2606010    0.00000       Uiso       1.00
      C119          C  0.8130210  0.6241240  0.7300950    0.00000       Uiso       1.00
      C120          C  0.3130210  0.1241240  0.7300950    0.00000       Uiso       1.00
      C121          C  0.1869790  0.6241240  0.2699050    0.00000       Uiso       1.00
      C122          C  0.6869789  0.1241240  0.2699050    0.00000       Uiso       1.00
      H123          H  0.7797600  0.5713620  0.2434680    0.00000       Uiso       1.00
      H124          H  0.2797600  0.0713620  0.2434680    0.00000       Uiso       1.00
      H125          H  0.2202400  0.5713620  0.7565320    0.00000       Uiso       1.00
      H126          H  0.7202401  0.0713620  0.7565320    0.00000       Uiso       1.00
      H127          H  0.7024360  0.5962940  0.2514030    0.00000       Uiso       1.00
      H128          H  0.2024360  0.0962940  0.2514030    0.00000       Uiso       1.00
      H129          H  0.2975640  0.5962940  0.7485970    0.00000       Uiso       1.00
      H130          H  0.7975640  0.0962940  0.7485970    0.00000       Uiso       1.00
      H131          H  0.7641850  0.6554690  0.8871960    0.00000       Uiso       1.00
      H132          H  0.2641850  0.1554690  0.8871960    0.00000       Uiso       1.00
      H133          H  0.2358150  0.6554690  0.1128040    0.00000       Uiso       1.00
      H134          H  0.7358150  0.1554690  0.1128040    0.00000       Uiso       1.00
      H135          H  0.8419270  0.6316730  0.8629980    0.00000       Uiso       1.00
      H136          H  0.3419270  0.1316730  0.8629980    0.00000       Uiso       1.00
      H137          H  0.1580730  0.6316730  0.1370020    0.00000       Uiso       1.00
      H138          H  0.6580730  0.1316730  0.1370020    0.00000       Uiso       1.00
      C139          C  0.0342940  0.4008220  0.6816550    0.00000       Uiso       1.00
      C140          C  0.5342940  0.9008220  0.6816550    0.00000       Uiso       1.00
      C141          C  0.9657060  0.4008220  0.3183450    0.00000       Uiso       1.00
      C142          C  0.4657060  0.9008220  0.3183450    0.00000       Uiso       1.00
      C143          C  0.0341730  0.3710960  0.6835280    0.00000       Uiso       1.00
      C144          C  0.5341730  0.8710960  0.6835280    0.00000       Uiso       1.00
      C145          C  0.9658270  0.3710960  0.3164720    0.00000       Uiso       1.00
      C146          C  0.4658270  0.8710960  0.3164720    0.00000       Uiso       1.00
      H147          H  0.0600490  0.4102440  0.8245520    0.00000       Uiso       1.00
      H148          H  0.5600490  0.9102440  0.8245520    0.00000       Uiso       1.00
      H149          H  0.9399510  0.4102440  0.1754480    0.00000       Uiso       1.00
      H150          H  0.4399510  0.9102440  0.1754480    0.00000       Uiso       1.00
      H151          H  0.0593820  0.3616030  0.8312430    0.00000       Uiso       1.00
      H152          H  0.5593820  0.8616030  0.8312430    0.00000       Uiso       1.00
      H153          H  0.9406180  0.3616030  0.1687570    0.00000       Uiso       1.00
      H154          H  0.4406180  0.8616030  0.1687570    0.00000       Uiso       1.00
      N155          N  0.0000000  0.5389270  0.5000000    0.00000       Uiso       1.00
      N156          N  0.5000000  0.0389270  0.5000000    0.00000       Uiso       1.00
      C157          C  0.0000000  0.5094470  0.5000000    0.00000       Uiso       1.00
      C158          C  0.5000000  0.0094470  0.5000000    0.00000       Uiso       1.00
      C159          C  0.0000000  0.4472720  0.5000000    0.00000       Uiso       1.00
      C160          C  0.5000000  0.9472720  0.5000000    0.00000       Uiso       1.00
      C161          C  0.0000000  0.4169680  0.5000000    0.00000       Uiso       1.00
      C162          C  0.5000000  0.9169680  0.5000000    0.00000       Uiso       1.00
      C163          C  0.0000000  0.3550190  0.5000000    0.00000       Uiso       1.00
      C164          C  0.5000000  0.8550190  0.5000000    0.00000       Uiso       1.00
      H165          H  0.6368530  0.7099260  0.4491840    0.00000       Uiso       1.00
      H166          H  0.1368530  0.2099260  0.4491840    0.00000       Uiso       1.00
      H167          H  0.3631470  0.7099260  0.5508160    0.00000       Uiso       1.00
      H168          H  0.8631470  0.2099260  0.5508160    0.00000       Uiso       1.00
      H169          H  0.4269650  0.7687340  0.3155800    0.00000       Uiso       1.00
      H170          H  0.9269650  0.2687340  0.3155800    0.00000       Uiso       1.00
      H171          H  0.5730350  0.7687340  0.6844200    0.00000       Uiso       1.00
      H172          H  0.0730350  0.2687340  0.6844200    0.00000       Uiso       1.00
      H173          H  0.4420220  0.6345880  0.3697800    0.00000       Uiso       1.00
      H174          H  0.9420220  0.1345880  0.3697800    0.00000       Uiso       1.00
      H175          H  0.5579780  0.6345880  0.6302200    0.00000       Uiso       1.00
      H176          H  0.0579780  0.1345880  0.6302200    0.00000       Uiso       1.00
      C177          C  0.6809450  0.6441290  0.5585280    0.00000       Uiso       1.00
      C178          C  0.1809450  0.1441290  0.5585280    0.00000       Uiso       1.00
      C179          C  0.3190550  0.6441290  0.4414720    0.00000       Uiso       1.00
      C180          C  0.8190550  0.1441290  0.4414720    0.00000       Uiso       1.00
      C181          C  0.5000000  0.8247410  0.5000000    0.00000       Uiso       1.00
      C182          C  0.0000000  0.3247410  0.5000000    0.00000       Uiso       1.00
      H183          H  0.7128980  0.6843510  0.4721790    0.00000       Uiso       1.00
      H184          H  0.6340759  0.6089830  0.6440490    0.00000       Uiso       1.00
      H185          H  0.2128980  0.1843510  0.4721790    0.00000       Uiso       1.00
      H186          H  0.1340760  0.1089830  0.6440490    0.00000       Uiso       1.00
      H187          H  0.2871020  0.6843510  0.5278210    0.00000       Uiso       1.00
      H188          H  0.3659240  0.6089830  0.3559510    0.00000       Uiso       1.00
      H189          H  0.7871020  0.1843510  0.5278210    0.00000       Uiso       1.00
      H190          H  0.8659240  0.1089830  0.3559510    0.00000       Uiso       1.00
      H191          H  0.4255900  0.8182991  0.3341740    0.00000       Uiso       1.00
      H192          H  0.9255900  0.3182990  0.3341740    0.00000       Uiso       1.00
      H193          H  0.5744100  0.8182991  0.6658260    0.00000       Uiso       1.00
      H194          H  0.0744100  0.3182990  0.6658260    0.00000       Uiso       1.00
