data_AzO-COF
_audit_creation_date              0000-00-00
_audit_creation_method            'LanYouShi'
_symmetry_space_group_name_H-M    'P1'
_cell_length_a                    41.1981010
_cell_length_b                    41.1981010
_cell_length_c                    3.4999001
_cell_angle_alpha                 90.0000000
_cell_angle_beta                  90.0000000
_cell_angle_gamma                 120.0000000
loop_
_atom_site_label
_atom_site_type_symbol
_atom_site_fract_x
_atom_site_fract_y
_atom_site_fract_z
_atom_site_U_iso_or_equiv
_atom_site_adp_type
_atom_site_occupancy
        C1          C  0.7021870  0.3347340  0.5000020    0.00000       Uiso       1.00
        C2          C  0.7007080  0.3689230  0.5000020    0.00000       Uiso       1.00
        C3          C  0.7353290  0.4037840  0.5000020    0.00000       Uiso       1.00
        C4          C  0.7382000  0.3374330  0.5000020    0.00000       Uiso       1.00
        C5          C  0.7697390  0.4049250  0.5000020    0.00000       Uiso       1.00
        C6          C  0.7711580  0.3721170  0.5000020    0.00000       Uiso       1.00
        C7          C  0.6682150  0.2992920  0.5000020    0.00000       Uiso       1.00
        C8          C  0.6325460  0.2978130  0.5000020    0.00000       Uiso       1.00
        C9          C  0.5992340  0.2618000  0.5000020    0.00000       Uiso       1.00
       C10          C  0.6684550  0.2646710  0.5000020    0.00000       Uiso       1.00
       C11          C  0.6009580  0.2288410  0.5000020    0.00000       Uiso       1.00
       C12          C  0.6351850  0.2302610  0.5000020    0.00000       Uiso       1.00
       C13          C  0.6652660  0.3674530  0.5000020    0.00000       Uiso       1.00
       C14          C  0.6310760  0.3317840  0.5000020    0.00000       Uiso       1.00
       C15          C  0.5962160  0.3315450  0.5000020    0.00000       Uiso       1.00
       C16          C  0.6625660  0.4007660  0.5000020    0.00000       Uiso       1.00
       C17          C  0.5950750  0.3648140  0.5000020    0.00000       Uiso       1.00
       C18          C  0.6278830  0.3990410  0.5000020    0.00000       Uiso       1.00
       C19          C  0.2978130  0.6652660  0.5000020    0.00000       Uiso       1.00
       C20          C  0.2992920  0.6310760  0.5000020    0.00000       Uiso       1.00
       C21          C  0.2646710  0.5962160  0.5000020    0.00000       Uiso       1.00
       C22          C  0.2618000  0.6625660  0.5000020    0.00000       Uiso       1.00
       C23          C  0.2302610  0.5950750  0.5000020    0.00000       Uiso       1.00
       C24          C  0.2288410  0.6278830  0.5000020    0.00000       Uiso       1.00
       C25          C  0.3317840  0.7007080  0.5000020    0.00000       Uiso       1.00
       C26          C  0.3674530  0.7021870  0.5000020    0.00000       Uiso       1.00
       C27          C  0.4007660  0.7381990  0.5000020    0.00000       Uiso       1.00
       C28          C  0.3315450  0.7353290  0.5000020    0.00000       Uiso       1.00
       C29          C  0.3990410  0.7711580  0.5000020    0.00000       Uiso       1.00
       C30          C  0.3648140  0.7697390  0.5000020    0.00000       Uiso       1.00
       C31          C  0.3347340  0.6325460  0.5000020    0.00000       Uiso       1.00
       C32          C  0.3689230  0.6682150  0.5000020    0.00000       Uiso       1.00
       C33          C  0.4037840  0.6684550  0.5000020    0.00000       Uiso       1.00
       C34          C  0.3374330  0.5992340  0.5000020    0.00000       Uiso       1.00
       C35          C  0.4049250  0.6351850  0.5000020    0.00000       Uiso       1.00
       C36          C  0.3721170  0.6009580  0.5000020    0.00000       Uiso       1.00
       O37          O  0.8069530  0.3794280  0.5000020    0.00000       Uiso       1.00
       O38          O  0.6306120  0.1954570  0.5000020    0.00000       Uiso       1.00
       O39          O  0.6205720  0.4275250  0.5000020    0.00000       Uiso       1.00
       O40          O  0.8045430  0.4351550  0.5000020    0.00000       Uiso       1.00
       O41          O  0.5724740  0.1930460  0.5000020    0.00000       Uiso       1.00
       O42          O  0.5648450  0.3693880  0.5000020    0.00000       Uiso       1.00
       O43          O  0.1930460  0.6205720  0.5000020    0.00000       Uiso       1.00
       O44          O  0.3693880  0.8045430  0.5000020    0.00000       Uiso       1.00
       O45          O  0.3794280  0.5724740  0.5000020    0.00000       Uiso       1.00
       O46          O  0.1954570  0.5648450  0.5000020    0.00000       Uiso       1.00
       O47          O  0.4275250  0.8069530  0.5000020    0.00000       Uiso       1.00
       O48          O  0.4351550  0.6306120  0.5000020    0.00000       Uiso       1.00
       B49          B  0.8292120  0.4197690  0.5000020    0.00000       Uiso       1.00
       B50          B  0.5802310  0.4094430  0.5000020    0.00000       Uiso       1.00
       B51          B  0.5905560  0.1707880  0.5000020    0.00000       Uiso       1.00
       B52          B  0.1707880  0.5802310  0.5000020    0.00000       Uiso       1.00
       B53          B  0.4197690  0.5905560  0.5000020    0.00000       Uiso       1.00
       B54          B  0.4094430  0.8292120  0.5000020    0.00000       Uiso       1.00
       H55          H  0.7370810  0.4292410  0.5000020    0.00000       Uiso       1.00
       H56          H  0.5729160  0.2579730  0.5000020    0.00000       Uiso       1.00
       H57          H  0.5707590  0.3078400  0.5000020    0.00000       Uiso       1.00
       H58          H  0.7420270  0.3149430  0.5000020    0.00000       Uiso       1.00
       H59          H  0.6921590  0.2629180  0.5000020    0.00000       Uiso       1.00
       H60          H  0.6850560  0.4270830  0.5000020    0.00000       Uiso       1.00
       H61          H  0.2629180  0.5707590  0.5000020    0.00000       Uiso       1.00
       H62          H  0.4270830  0.7420270  0.5000020    0.00000       Uiso       1.00
       H63          H  0.4292410  0.6921590  0.5000020    0.00000       Uiso       1.00
       H64          H  0.2579730  0.6850560  0.5000020    0.00000       Uiso       1.00
       H65          H  0.3078400  0.7370810  0.5000020    0.00000       Uiso       1.00
       H66          H  0.3149430  0.5729160  0.5000020    0.00000       Uiso       1.00
       C67          C  0.1291340  0.5580830  0.5000020    0.00000       Uiso       1.00
       C68          C  0.1078520  0.5763190  0.5000020    0.00000       Uiso       1.00
       C69          C  0.1103450  0.5185420  0.5000020    0.00000       Uiso       1.00
       C70          C  0.0684490  0.5553550  0.5000020    0.00000       Uiso       1.00
       C71          C  0.0709380  0.4976090  0.5000020    0.00000       Uiso       1.00
       C72          C  0.0496120  0.5157470  0.5000020    0.00000       Uiso       1.00
       N73          N  0.0118900  0.4940320  0.5000020    0.00000       Uiso       1.00
       C74          C  0.4419170  0.5710510  0.5000020    0.00000       Uiso       1.00
       C75          C  0.5580830  0.4289490  0.5000020    0.00000       Uiso       1.00
       C76          C  0.4236810  0.5315330  0.5000020    0.00000       Uiso       1.00
       C77          C  0.4814580  0.5918030  0.5000020    0.00000       Uiso       1.00
       C78          C  0.5763190  0.4684660  0.5000020    0.00000       Uiso       1.00
       C79          C  0.5185420  0.4081970  0.5000020    0.00000       Uiso       1.00
       C80          C  0.4446450  0.5130940  0.5000020    0.00000       Uiso       1.00
       C81          C  0.5023900  0.5733290  0.5000020    0.00000       Uiso       1.00
       C82          C  0.5553550  0.4869060  0.5000020    0.00000       Uiso       1.00
       C83          C  0.4976090  0.4266710  0.5000020    0.00000       Uiso       1.00
       C84          C  0.4842520  0.5338640  0.5000020    0.00000       Uiso       1.00
       C85          C  0.5157470  0.4661360  0.5000020    0.00000       Uiso       1.00
       N86          N  0.4940320  0.4821420  0.5000020    0.00000       Uiso       1.00
       N87          N  0.5059680  0.5178570  0.5000020    0.00000       Uiso       1.00
       C88          C  0.4289490  0.8708650  0.5000020    0.00000       Uiso       1.00
       C89          C  0.4081970  0.8896550  0.5000020    0.00000       Uiso       1.00
       C90          C  0.4684660  0.8921470  0.5000020    0.00000       Uiso       1.00
       C91          C  0.4266710  0.9290610  0.5000020    0.00000       Uiso       1.00
       C92          C  0.4869060  0.9315509  0.5000020    0.00000       Uiso       1.00
       C93          C  0.4661350  0.9503880  0.5000020    0.00000       Uiso       1.00
       N94          N  0.4821420  0.9881100  0.5000020    0.00000       Uiso       1.00
       C95          C  0.8708650  0.4419170  0.5000020    0.00000       Uiso       1.00
       C96          C  0.8921470  0.4236810  0.5000020    0.00000       Uiso       1.00
       C97          C  0.8896550  0.4814580  0.5000020    0.00000       Uiso       1.00
       C98          C  0.9315510  0.4446450  0.5000020    0.00000       Uiso       1.00
       C99          C  0.9290610  0.5023900  0.5000020    0.00000       Uiso       1.00
      C100          C  0.9503880  0.4842520  0.5000020    0.00000       Uiso       1.00
      N101          N  0.9881100  0.5059680  0.5000020    0.00000       Uiso       1.00
      C102          C  0.5710510  0.1291340  0.5000020    0.00000       Uiso       1.00
      C103          C  0.5918030  0.1103450  0.5000020    0.00000       Uiso       1.00
      C104          C  0.5315330  0.1078520  0.5000020    0.00000       Uiso       1.00
      C105          C  0.5733290  0.0709380  0.5000020    0.00000       Uiso       1.00
      C106          C  0.5130940  0.0684490  0.5000020    0.00000       Uiso       1.00
      C107          C  0.5338640  0.0496120  0.5000020    0.00000       Uiso       1.00
      N108          N  0.5178570  0.0118900  0.5000020    0.00000       Uiso       1.00
      H109          H  0.1207600  0.6049520  0.5000020    0.00000       Uiso       1.00
      H110          H  0.1250850  0.5046060  0.5000020    0.00000       Uiso       1.00
      H111          H  0.0536620  0.5692210  0.5000020    0.00000       Uiso       1.00
      H112          H  0.0578940  0.4689580  0.5000020    0.00000       Uiso       1.00
      H113          H  0.3795210  0.8749150  0.5000020    0.00000       Uiso       1.00
      H114          H  0.4841930  0.8792400  0.5000020    0.00000       Uiso       1.00
      H115          H  0.4110640  0.9421049  0.5000020    0.00000       Uiso       1.00
      H116          H  0.5155590  0.9463370  0.5000020    0.00000       Uiso       1.00
      H117          H  0.3950470  0.5158070  0.5000020    0.00000       Uiso       1.00
      H118          H  0.4953930  0.6204780  0.5000020    0.00000       Uiso       1.00
      H119          H  0.6049520  0.4841930  0.5000020    0.00000       Uiso       1.00
      H120          H  0.5046060  0.3795210  0.5000020    0.00000       Uiso       1.00
      H121          H  0.4307780  0.4844410  0.5000020    0.00000       Uiso       1.00
      H122          H  0.5310410  0.5889360  0.5000020    0.00000       Uiso       1.00
      H123          H  0.5692210  0.5155590  0.5000020    0.00000       Uiso       1.00
      H124          H  0.4689580  0.4110640  0.5000020    0.00000       Uiso       1.00
      H125          H  0.8792400  0.3950470  0.5000020    0.00000       Uiso       1.00
      H126          H  0.8749150  0.4953930  0.5000020    0.00000       Uiso       1.00
      H127          H  0.9463370  0.4307780  0.5000020    0.00000       Uiso       1.00
      H128          H  0.9421051  0.5310410  0.5000020    0.00000       Uiso       1.00
      H129          H  0.6204780  0.1250850  0.5000020    0.00000       Uiso       1.00
      H130          H  0.5158070  0.1207600  0.5000020    0.00000       Uiso       1.00
      H131          H  0.5889360  0.0578940  0.5000020    0.00000       Uiso       1.00
      H132          H  0.4844410  0.0536630  0.5000020    0.00000       Uiso       1.00
