data_PCTF-4
_audit_creation_date              0000-00-00
_audit_creation_method            'LanYouShi'
_symmetry_space_group_name_H-M    'P1'
_cell_length_a                    4.2270999
_cell_length_b                    26.9780006
_cell_length_c                    27.2511005
_cell_angle_alpha                 60.3310013
_cell_angle_beta                  89.6976013
_cell_angle_gamma                 89.3889999
loop_
_atom_site_label
_atom_site_type_symbol
_atom_site_fract_x
_atom_site_fract_y
_atom_site_fract_z
_atom_site_U_iso_or_equiv
_atom_site_adp_type
_atom_site_occupancy
        C1          C -0.5254310  1.2348500 -1.3811660    0.00000       Uiso       1.00
        C2          C -0.5204920  1.1463940 -1.3807172    0.00000       Uiso       1.00
        C3          C -0.5240770  1.2338670 -1.4681351    0.00000       Uiso       1.00
        N4          N -0.5235270  1.2620820 -1.4384381    0.00000       Uiso       1.00
        N5          N -0.5239640  1.1759750 -1.4380091    0.00000       Uiso       1.00
        N6          N -0.5228460  1.1770270 -1.3535269    0.00000       Uiso       1.00
        C7          C -0.5296300  1.2652550 -1.3511770    0.00000       Uiso       1.00
        C8          C -0.5106570  1.0860161 -1.3503060    0.00000       Uiso       1.00
        C9          C -0.5236500  1.2636030 -1.5280130    0.00000       Uiso       1.00
       C10          C -0.4296910  1.3227080 -1.3767680    0.00000       Uiso       1.00
       C11          C -0.6038320  1.0533670 -1.3754400    0.00000       Uiso       1.00
       C12          C -0.5950480  1.2357360 -1.5590960    0.00000       Uiso       1.00
       C13          C -0.4512230  1.3224820 -1.5593070    0.00000       Uiso       1.00
       C14          C -0.4038110  1.0559371 -1.2935790    0.00000       Uiso       1.00
       C15          C -0.6339360  1.2392941 -1.2943350    0.00000       Uiso       1.00
       C16          C -0.6369150  1.2693330 -1.2643160    0.00000       Uiso       1.00
       C17          C -0.3879430  0.9959350 -1.2634610    0.00000       Uiso       1.00
       C18          C -0.4504790  1.3520890 -1.6187749    0.00000       Uiso       1.00
       C19          C -0.5952570  1.2653170 -1.6185910    0.00000       Uiso       1.00
       C20          C -0.5894970  0.9933210 -1.3452600    0.00000       Uiso       1.00
       C21          C -0.4310450  1.3527180 -1.3466990    0.00000       Uiso       1.00
       C22          C -0.4880820  1.5088470 -1.1064420    0.00000       Uiso       1.00
       C23          C -0.4509470  0.5975590 -1.1071020    0.00000       Uiso       1.00
       C24          C -0.6796020  1.4599550 -1.0885270    0.00000       Uiso       1.00
       C25          C -0.2621000  0.6290660 -1.0894450    0.00000       Uiso       1.00
       C26          C -0.6890790  1.4288000 -1.1174650    0.00000       Uiso       1.00
       C27          C -0.2575570  0.6891970 -1.1183320    0.00000       Uiso       1.00
       C28          C -0.5192710  1.4475130 -1.1681941    0.00000       Uiso       1.00
       C29          C -0.4312020  0.7207580 -1.1686970    0.00000       Uiso       1.00
       C30          C -0.3371780  1.4972740 -1.1884180    0.00000       Uiso       1.00
       C31          C -0.6053910  0.6906380 -1.1892540    0.00000       Uiso       1.00
       C32          C -0.3184680  1.5261760 -1.1574520    0.00000       Uiso       1.00
       C33          C -0.6193560  0.6307340 -1.1583370    0.00000       Uiso       1.00
       H34          H -0.8154490  1.4462990 -1.0533620    0.00000       Uiso       1.00
       H35          H -0.1261430  0.6078100 -1.0542970    0.00000       Uiso       1.00
       H36          H -0.8232950  1.3927090 -1.1016051    0.00000       Uiso       1.00
       H37          H -0.1242810  0.7097050 -1.1026900    0.00000       Uiso       1.00
       H38          H -0.2127390  1.5123370 -1.2253230    0.00000       Uiso       1.00
       H39          H -0.7272530  0.7121310 -1.2265090    0.00000       Uiso       1.00
       H40          H -0.1770380  1.5608650 -1.1729400    0.00000       Uiso       1.00
       H41          H -0.7568410  0.6112090 -1.1740170    0.00000       Uiso       1.00
       C42          C -0.3707040  1.4517250 -0.9842660    0.00000       Uiso       1.00
       C43          C -0.5823540  0.5344560 -0.9856170    0.00000       Uiso       1.00
       C44          C -0.3930010  1.4213020 -0.9248510    0.00000       Uiso       1.00
       C45          C -0.5794990  0.5057420 -0.9261460    0.00000       Uiso       1.00
       H46          H -0.2801590  1.4302590 -1.0031720    0.00000       Uiso       1.00
       H47          H -0.6631060  0.5754540 -1.0054311    0.00000       Uiso       1.00
       H48          H -0.3314750  1.3791710 -0.9056091    0.00000       Uiso       1.00
       H49          H -0.6380690  0.5296450 -0.9079189    0.00000       Uiso       1.00
       C50          C -0.5274540  1.4173280 -1.1980571    0.00000       Uiso       1.00
       C51          C -0.4353910  0.7808580 -1.1978670    0.00000       Uiso       1.00
       C52          C -0.3879760  1.3626100 -1.1757040    0.00000       Uiso       1.00
       C53          C -0.5783680  0.8113720 -1.1736190    0.00000       Uiso       1.00
       C54          C -0.3884200  1.3331890 -1.2057650    0.00000       Uiso       1.00
       C55          C -0.5933560  0.8715400 -1.2036310    0.00000       Uiso       1.00
       C56          C -0.5322470  1.3564301 -1.2595670    0.00000       Uiso       1.00
       C57          C -0.4623750  0.9032980 -1.2585670    0.00000       Uiso       1.00
       C58          C -0.6733370  1.4113539 -1.2821620    0.00000       Uiso       1.00
       C59          C -0.3136220  0.8721430 -1.2816030    0.00000       Uiso       1.00
       C60          C -0.6692860  1.4414740 -1.2520950    0.00000       Uiso       1.00
       C61          C -0.3025570  0.8126720 -1.2522960    0.00000       Uiso       1.00
       H62          H -0.6761880  0.7898820 -0.1340840    0.00000       Uiso       1.00
       H63          H -0.7041770  0.8921170 -0.1851460    0.00000       Uiso       1.00
       H64          H -0.7822010  1.4298130 -1.3208160    0.00000       Uiso       1.00
       H65          H -0.7716990  1.4812050 -1.2698750    0.00000       Uiso       1.00
       C66          C -0.6940010  0.4348820 -0.7998050    0.00000       Uiso       1.00
       C67          C -0.3378770  1.3648010 -0.7995710    0.00000       Uiso       1.00
       C68          C -0.6959630  0.4052150 -0.7407010    0.00000       Uiso       1.00
       C69          C -0.3467280  1.3338990 -0.7400390    0.00000       Uiso       1.00
       H70          H -0.1924900  1.3485620 -0.8182650    0.00000       Uiso       1.00
       H71          H -0.2157790  1.2970190 -0.7191650    0.00000       Uiso       1.00
       N72          N -0.4698100  0.5383370 -1.0766940    0.00000       Uiso       1.00
       C73          C -0.4739530  0.5092190 -1.0176810    0.00000       Uiso       1.00
       C74          C -0.4965200  0.4471650 -0.8929930    0.00000       Uiso       1.00
       C75          C -0.5119700  0.4165660 -0.8323460    0.00000       Uiso       1.00
       C76          C -0.5238340  0.3539140 -0.7091550    0.00000       Uiso       1.00
       H77          H -0.3516700  1.3431898 -1.4177169    0.00000       Uiso       1.00
       H78          H -0.6848400  1.0731710 -1.4161949    0.00000       Uiso       1.00
       H79          H -0.6498870  1.1932850 -1.5384960    0.00000       Uiso       1.00
       H80          H -0.3960950  1.3445500 -1.5389400    0.00000       Uiso       1.00
       H81          H -0.3327720  1.0776750 -1.2736670    0.00000       Uiso       1.00
       H82          H -0.7110970  1.1980070 -1.2741760    0.00000       Uiso       1.00
       C83          C -0.5338200  1.3264650 -1.2899081    0.00000       Uiso       1.00
       C84          C -0.4799440  0.9635770 -1.2888240    0.00000       Uiso       1.00
       C85          C -0.5235960  1.3240480 -1.6494241    0.00000       Uiso       1.00
       H86          H -0.3530560  1.3939350 -1.3665642    0.00000       Uiso       1.00
       H87          H -0.6611100  0.9712980 -1.3649030    0.00000       Uiso       1.00
       H88          H -0.7163660  1.2491180 -1.2233900    0.00000       Uiso       1.00
       H89          H -0.3052780  0.9760230 -1.2228220    0.00000       Uiso       1.00
       H90          H -0.6506600  1.2436210 -1.6393189    0.00000       Uiso       1.00
       H91          H -0.3941730  1.3945529 -1.6397629    0.00000       Uiso       1.00
       N92          N -0.8863390  0.4806120 -0.8182850    0.00000       Uiso       1.00
       S93          S -1.0514170  0.4914830 -0.7680210    0.00000       Uiso       1.00
       N94          N -0.8787870  0.4306650 -0.7190681    0.00000       Uiso       1.00
       N95          N -0.2370520  0.3332020 -0.1261610    0.00000       Uiso       1.00
       S96          S -0.0907340  0.2699930 -0.1146750    0.00000       Uiso       1.00
       N97          N -0.2344360  0.2830810 -0.1775890    0.00000       Uiso       1.00
       N98          N -0.1657540  0.8934550 -0.3315680    0.00000       Uiso       1.00
       S99          S -0.0148950  0.8430760 -0.3446440    0.00000       Uiso       1.00
      N100          N -0.1515640  0.7919689 -0.2817700    0.00000       Uiso       1.00
