data_Ph-AnCD-COF
_audit_creation_date              0000-00-00
_audit_creation_method            'LanYouShi'
_symmetry_space_group_name_H-M    'P1'
_cell_length_a                    28.1474991
_cell_length_b                    28.1474991
_cell_length_c                    14.5171003
_cell_angle_alpha                 90.0000000
_cell_angle_beta                  90.0000000
_cell_angle_gamma                 120.0000000
loop_
_atom_site_label
_atom_site_type_symbol
_atom_site_fract_x
_atom_site_fract_y
_atom_site_fract_z
_atom_site_U_iso_or_equiv
_atom_site_adp_type
_atom_site_occupancy
        C1          C  0.9072990  0.4028670  0.3619970    0.00000       Uiso       1.00
        C2          C  0.5971340  0.5044320  0.3619970    0.00000       Uiso       1.00
        C3          C  0.4955700  0.0927020  0.3619970    0.00000       Uiso       1.00
        C4          C  0.0927020  0.5971340  0.3619970    0.00000       Uiso       1.00
        C5          C  0.4028670  0.4955700  0.3619970    0.00000       Uiso       1.00
        C6          C  0.5044320  0.9072990  0.3619970    0.00000       Uiso       1.00
        C7          C  0.4028670  0.9072990  0.6380050    0.00000       Uiso       1.00
        C8          C  0.5044320  0.5971340  0.6380050    0.00000       Uiso       1.00
        C9          C  0.0927020  0.4955700  0.6380050    0.00000       Uiso       1.00
       C10          C  0.5971340  0.0927020  0.6380050    0.00000       Uiso       1.00
       C11          C  0.4955700  0.4028670  0.6380050    0.00000       Uiso       1.00
       C12          C  0.9072990  0.5044320  0.6380050    0.00000       Uiso       1.00
       C13          C  0.0927020  0.5971340  0.6380050    0.00000       Uiso       1.00
       C14          C  0.4028670  0.4955700  0.6380050    0.00000       Uiso       1.00
       C15          C  0.5044320  0.9072990  0.6380050    0.00000       Uiso       1.00
       C16          C  0.9072990  0.4028670  0.6380050    0.00000       Uiso       1.00
       C17          C  0.5971340  0.5044320  0.6380050    0.00000       Uiso       1.00
       C18          C  0.4955700  0.0927020  0.6380050    0.00000       Uiso       1.00
       C19          C  0.5971340  0.0927020  0.3619970    0.00000       Uiso       1.00
       C20          C  0.4955700  0.4028670  0.3619970    0.00000       Uiso       1.00
       C21          C  0.9072990  0.5044320  0.3619970    0.00000       Uiso       1.00
       C22          C  0.4028670  0.9072990  0.3619970    0.00000       Uiso       1.00
       C23          C  0.5044320  0.5971340  0.3619970    0.00000       Uiso       1.00
       C24          C  0.0927020  0.4955700  0.3619970    0.00000       Uiso       1.00
       C25          C  0.9513730  0.4501640  0.4021510    0.00000       Uiso       1.00
       C26          C  0.5498380  0.5012100  0.4021510    0.00000       Uiso       1.00
       C27          C  0.4987920  0.0486280  0.4021510    0.00000       Uiso       1.00
       C28          C  0.0486280  0.5498380  0.4021510    0.00000       Uiso       1.00
       C29          C  0.4501640  0.4987920  0.4021510    0.00000       Uiso       1.00
       C30          C  0.5012100  0.9513730  0.4021510    0.00000       Uiso       1.00
       C31          C  0.4501640  0.9513730  0.5978510    0.00000       Uiso       1.00
       C32          C  0.5012100  0.5498380  0.5978510    0.00000       Uiso       1.00
       C33          C  0.0486280  0.4987920  0.5978510    0.00000       Uiso       1.00
       C34          C  0.5498380  0.0486280  0.5978510    0.00000       Uiso       1.00
       C35          C  0.4987920  0.4501640  0.5978510    0.00000       Uiso       1.00
       C36          C  0.9513730  0.5012100  0.5978510    0.00000       Uiso       1.00
       C37          C  0.0486280  0.5498380  0.5978510    0.00000       Uiso       1.00
       C38          C  0.4501640  0.4987920  0.5978510    0.00000       Uiso       1.00
       C39          C  0.5012100  0.9513730  0.5978510    0.00000       Uiso       1.00
       C40          C  0.9513730  0.4501640  0.5978510    0.00000       Uiso       1.00
       C41          C  0.5498380  0.5012100  0.5978510    0.00000       Uiso       1.00
       C42          C  0.4987920  0.0486280  0.5978510    0.00000       Uiso       1.00
       C43          C  0.5498380  0.0486280  0.4021510    0.00000       Uiso       1.00
       C44          C  0.4987920  0.4501640  0.4021510    0.00000       Uiso       1.00
       C45          C  0.9513730  0.5012100  0.4021510    0.00000       Uiso       1.00
       C46          C  0.4501640  0.9513730  0.4021510    0.00000       Uiso       1.00
       C47          C  0.5012100  0.5498380  0.4021510    0.00000       Uiso       1.00
       C48          C  0.0486280  0.4987920  0.4021510    0.00000       Uiso       1.00
       H49          H  0.9062220  0.3661340  0.3611360    0.00000       Uiso       1.00
       H50          H  0.6338680  0.5400890  0.3611360    0.00000       Uiso       1.00
       H51          H  0.4599130  0.0937790  0.3611360    0.00000       Uiso       1.00
       H52          H  0.0937790  0.6338680  0.3611360    0.00000       Uiso       1.00
       H53          H  0.3661340  0.4599130  0.3611360    0.00000       Uiso       1.00
       H54          H  0.5400890  0.9062220  0.3611360    0.00000       Uiso       1.00
       H55          H  0.3661340  0.9062220  0.6388660    0.00000       Uiso       1.00
       H56          H  0.5400890  0.6338680  0.6388660    0.00000       Uiso       1.00
       H57          H  0.0937790  0.4599130  0.6388660    0.00000       Uiso       1.00
       H58          H  0.6338680  0.0937790  0.6388660    0.00000       Uiso       1.00
       H59          H  0.4599130  0.3661340  0.6388660    0.00000       Uiso       1.00
       H60          H  0.9062220  0.5400890  0.6388660    0.00000       Uiso       1.00
       H61          H  0.0937790  0.6338680  0.6388660    0.00000       Uiso       1.00
       H62          H  0.3661340  0.4599130  0.6388660    0.00000       Uiso       1.00
       H63          H  0.5400890  0.9062220  0.6388660    0.00000       Uiso       1.00
       H64          H  0.9062220  0.3661340  0.6388660    0.00000       Uiso       1.00
       H65          H  0.6338680  0.5400890  0.6388660    0.00000       Uiso       1.00
       H66          H  0.4599130  0.0937790  0.6388660    0.00000       Uiso       1.00
       H67          H  0.6338680  0.0937790  0.3611360    0.00000       Uiso       1.00
       H68          H  0.4599130  0.3661340  0.3611360    0.00000       Uiso       1.00
       H69          H  0.9062220  0.5400890  0.3611360    0.00000       Uiso       1.00
       H70          H  0.3661340  0.9062220  0.3611360    0.00000       Uiso       1.00
       H71          H  0.5400890  0.6338680  0.3611360    0.00000       Uiso       1.00
       H72          H  0.0937790  0.4599130  0.3611360    0.00000       Uiso       1.00
       C73          C  0.8635110  0.4069380  0.3250510    0.00000       Uiso       1.00
       C74          C  0.5930630  0.4565730  0.3250510    0.00000       Uiso       1.00
       C75          C  0.5434290  0.1364900  0.3250510    0.00000       Uiso       1.00
       C76          C  0.1364900  0.5930630  0.3250510    0.00000       Uiso       1.00
       C77          C  0.4069380  0.5434290  0.3250510    0.00000       Uiso       1.00
       C78          C  0.4565730  0.8635111  0.3250510    0.00000       Uiso       1.00
       C79          C  0.4069380  0.8635111  0.6749510    0.00000       Uiso       1.00
       C80          C  0.4565730  0.5930630  0.6749510    0.00000       Uiso       1.00
       C81          C  0.1364900  0.5434290  0.6749510    0.00000       Uiso       1.00
       C82          C  0.5930630  0.1364900  0.6749510    0.00000       Uiso       1.00
       C83          C  0.5434290  0.4069380  0.6749510    0.00000       Uiso       1.00
       C84          C  0.8635110  0.4565730  0.6749510    0.00000       Uiso       1.00
       C85          C  0.1364900  0.5930630  0.6749510    0.00000       Uiso       1.00
       C86          C  0.4069380  0.5434290  0.6749510    0.00000       Uiso       1.00
       C87          C  0.4565730  0.8635111  0.6749510    0.00000       Uiso       1.00
       C88          C  0.8635110  0.4069380  0.6749510    0.00000       Uiso       1.00
       C89          C  0.5930630  0.4565730  0.6749510    0.00000       Uiso       1.00
       C90          C  0.5434290  0.1364900  0.6749510    0.00000       Uiso       1.00
       C91          C  0.5930630  0.1364900  0.3250510    0.00000       Uiso       1.00
       C92          C  0.5434290  0.4069380  0.3250510    0.00000       Uiso       1.00
       C93          C  0.8635110  0.4565730  0.3250510    0.00000       Uiso       1.00
       C94          C  0.4069380  0.8635111  0.3250510    0.00000       Uiso       1.00
       C95          C  0.4565730  0.5930630  0.3250510    0.00000       Uiso       1.00
       C96          C  0.1364900  0.5434290  0.3250510    0.00000       Uiso       1.00
       C97          C  0.0000000  0.4497900  0.4448590    0.00000       Uiso       1.00
       C98          C  0.5502110  0.5502110  0.4448590    0.00000       Uiso       1.00
       C99          C  0.4497900  0.0000000  0.4448590    0.00000       Uiso       1.00
      C100          C -0.0000000  0.5502110  0.4448590    0.00000       Uiso       1.00
      C101          C  0.4497900  0.4497900  0.4448590    0.00000       Uiso       1.00
      C102          C  0.5502110  0.0000000  0.4448590    0.00000       Uiso       1.00
      C103          C  0.4497900  0.0000000  0.5551430    0.00000       Uiso       1.00
      C104          C  0.5502110  0.5502110  0.5551430    0.00000       Uiso       1.00
      C105          C  0.0000000  0.4497900  0.5551430    0.00000       Uiso       1.00
      C106          C  0.5502110  0.0000000  0.5551430    0.00000       Uiso       1.00
      C107          C  0.4497900  0.4497900  0.5551430    0.00000       Uiso       1.00
      C108          C -0.0000000  0.5502110  0.5551430    0.00000       Uiso       1.00
      C109          C  0.2751310  0.6375660  0.2480230    0.00000       Uiso       1.00
      C110          C  0.3624350  0.6375660  0.2480230    0.00000       Uiso       1.00
      C111          C  0.3624350  0.7248700  0.2480230    0.00000       Uiso       1.00
      C112          C  0.7248700  0.3624350  0.2480230    0.00000       Uiso       1.00
      C113          C  0.6375660  0.3624350  0.2480230    0.00000       Uiso       1.00
      C114          C  0.6375660  0.2751310  0.2480230    0.00000       Uiso       1.00
      C115          C  0.6375660  0.2751310  0.7519790    0.00000       Uiso       1.00
      C116          C  0.6375660  0.3624350  0.7519790    0.00000       Uiso       1.00
      C117          C  0.7248700  0.3624350  0.7519790    0.00000       Uiso       1.00
      C118          C  0.3624350  0.7248700  0.7519790    0.00000       Uiso       1.00
      C119          C  0.3624350  0.6375660  0.7519790    0.00000       Uiso       1.00
      C120          C  0.2751310  0.6375660  0.7519790    0.00000       Uiso       1.00
      C121          C  0.3044870  0.6089730  0.2453310    0.00000       Uiso       1.00
      C122          C  0.3910280  0.6955150  0.2453310    0.00000       Uiso       1.00
      C123          C  0.3044870  0.6955150  0.2453310    0.00000       Uiso       1.00
      C124          C  0.6955150  0.3910280  0.2453310    0.00000       Uiso       1.00
      C125          C  0.6089730  0.3044870  0.2453310    0.00000       Uiso       1.00
      C126          C  0.6955150  0.3044870  0.2453310    0.00000       Uiso       1.00
      C127          C  0.6089730  0.3044870  0.7546710    0.00000       Uiso       1.00
      C128          C  0.6955150  0.3910280  0.7546710    0.00000       Uiso       1.00
      C129          C  0.6955150  0.3044870  0.7546710    0.00000       Uiso       1.00
      C130          C  0.3910280  0.6955150  0.7546710    0.00000       Uiso       1.00
      C131          C  0.3044870  0.6089730  0.7546710    0.00000       Uiso       1.00
      C132          C  0.3044870  0.6955150  0.7546710    0.00000       Uiso       1.00
      H133          H  0.2834880  0.7165130  0.2480340    0.00000       Uiso       1.00
      H134          H  0.2834880  0.5669760  0.2480340    0.00000       Uiso       1.00
      H135          H  0.4330260  0.7165130  0.2480340    0.00000       Uiso       1.00
      H136          H  0.7165130  0.2834880  0.2480340    0.00000       Uiso       1.00
      H137          H  0.7165130  0.4330260  0.2480340    0.00000       Uiso       1.00
      H138          H  0.5669760  0.2834880  0.2480340    0.00000       Uiso       1.00
      H139          H  0.7165130  0.2834880  0.7519680    0.00000       Uiso       1.00
      H140          H  0.5669760  0.2834880  0.7519680    0.00000       Uiso       1.00
      H141          H  0.7165130  0.4330260  0.7519680    0.00000       Uiso       1.00
      H142          H  0.2834880  0.7165130  0.7519680    0.00000       Uiso       1.00
      H143          H  0.4330260  0.7165130  0.7519680    0.00000       Uiso       1.00
      H144          H  0.2834880  0.5669760  0.7519680    0.00000       Uiso       1.00
      H145          H -0.0000000  0.4125890  0.4226340    0.00000       Uiso       1.00
      H146          H  0.5874120  0.5874120  0.4226340    0.00000       Uiso       1.00
      H147          H  0.4125890  0.0000000  0.4226340    0.00000       Uiso       1.00
      H148          H  0.0000000  0.5874120  0.4226340    0.00000       Uiso       1.00
      H149          H  0.4125890  0.4125890  0.4226340    0.00000       Uiso       1.00
      H150          H  0.5874119  0.0000000  0.4226340    0.00000       Uiso       1.00
      H151          H  0.4125890  0.0000000  0.5773680    0.00000       Uiso       1.00
      H152          H  0.5874120  0.5874120  0.5773680    0.00000       Uiso       1.00
      H153          H -0.0000000  0.4125890  0.5773680    0.00000       Uiso       1.00
      H154          H  0.5874119  0.0000000  0.5773680    0.00000       Uiso       1.00
      H155          H  0.4125890  0.4125890  0.5773680    0.00000       Uiso       1.00
      H156          H  0.0000000  0.5874120  0.5773680    0.00000       Uiso       1.00
      O157          O  0.1833150  0.5495980  0.2891170    0.00000       Uiso       1.00
      O158          O  0.4504030  0.6337190  0.2891170    0.00000       Uiso       1.00
      O159          O  0.3662820  0.8166860  0.2891170    0.00000       Uiso       1.00
      O160          O  0.8166860  0.4504030  0.2891170    0.00000       Uiso       1.00
      O161          O  0.5495980  0.3662820  0.2891170    0.00000       Uiso       1.00
      O162          O  0.6337190  0.1833150  0.2891170    0.00000       Uiso       1.00
      O163          O  0.5495980  0.1833150  0.7108849    0.00000       Uiso       1.00
      O164          O  0.6337190  0.4504030  0.7108849    0.00000       Uiso       1.00
      O165          O  0.8166860  0.3662820  0.7108849    0.00000       Uiso       1.00
      O166          O  0.4504030  0.8166860  0.7108849    0.00000       Uiso       1.00
      O167          O  0.3662820  0.5495980  0.7108849    0.00000       Uiso       1.00
      O168          O  0.1833150  0.6337190  0.7108849    0.00000       Uiso       1.00
      O169          O  0.8166860  0.4504030  0.7108849    0.00000       Uiso       1.00
      O170          O  0.5495980  0.3662820  0.7108849    0.00000       Uiso       1.00
      O171          O  0.6337190  0.1833150  0.7108849    0.00000       Uiso       1.00
      O172          O  0.1833150  0.5495980  0.7108849    0.00000       Uiso       1.00
      O173          O  0.4504030  0.6337190  0.7108849    0.00000       Uiso       1.00
      O174          O  0.3662820  0.8166860  0.7108849    0.00000       Uiso       1.00
      O175          O  0.4504030  0.8166860  0.2891170    0.00000       Uiso       1.00
      O176          O  0.3662820  0.5495980  0.2891170    0.00000       Uiso       1.00
      O177          O  0.1833150  0.6337190  0.2891170    0.00000       Uiso       1.00
      O178          O  0.5495980  0.1833150  0.2891170    0.00000       Uiso       1.00
      O179          O  0.6337190  0.4504030  0.2891170    0.00000       Uiso       1.00
      O180          O  0.8166860  0.3662820  0.2891170    0.00000       Uiso       1.00
      B181          B  0.7845240  0.3922620  0.2703120    0.00000       Uiso       1.00
      B182          B  0.6077390  0.3922620  0.2703120    0.00000       Uiso       1.00
      B183          B  0.6077390  0.2154770  0.2703120    0.00000       Uiso       1.00
      B184          B  0.2154770  0.6077390  0.2703120    0.00000       Uiso       1.00
      B185          B  0.3922620  0.6077390  0.2703120    0.00000       Uiso       1.00
      B186          B  0.3922620  0.7845241  0.2703120    0.00000       Uiso       1.00
      B187          B  0.3922620  0.7845241  0.7296900    0.00000       Uiso       1.00
      B188          B  0.3922620  0.6077390  0.7296900    0.00000       Uiso       1.00
      B189          B  0.2154770  0.6077390  0.7296900    0.00000       Uiso       1.00
      B190          B  0.6077390  0.2154770  0.7296900    0.00000       Uiso       1.00
      B191          B  0.6077390  0.3922620  0.7296900    0.00000       Uiso       1.00
      B192          B  0.7845240  0.3922620  0.7296900    0.00000       Uiso       1.00
