data_PI-COF
_audit_creation_date              0000-00-00
_audit_creation_method            'LanYouShi'
_symmetry_space_group_name_H-M    'P1'
_cell_length_a                    42.0962982
_cell_length_b                    42.0962982
_cell_length_c                    6.6626000
_cell_angle_alpha                 90.0000000
_cell_angle_beta                  90.0000000
_cell_angle_gamma                 90.0000000
loop_
_atom_site_label
_atom_site_type_symbol
_atom_site_fract_x
_atom_site_fract_y
_atom_site_fract_z
_atom_site_U_iso_or_equiv
_atom_site_adp_type
_atom_site_occupancy
        C1          C  0.0946910  0.5942470 -0.1828490    0.00000       Uiso       1.00
        H2          H  0.0863140  0.5858410 -0.3166660    0.00000       Uiso       1.00
        C3          C  0.1182690  0.6179180 -0.1827150    0.00000       Uiso       1.00
        H4          H  0.1267320  0.6264240 -0.3159650    0.00000       Uiso       1.00
        C5          C  0.9053080  0.4057520 -0.1828490    0.00000       Uiso       1.00
        H6          H  0.9136850  0.4141580 -0.3166660    0.00000       Uiso       1.00
        C7          C  0.8817300  0.3820810 -0.1827150    0.00000       Uiso       1.00
        H8          H  0.8732679  0.3735750 -0.3159650    0.00000       Uiso       1.00
        C9          C  0.4057520  0.0946910 -0.1828490    0.00000       Uiso       1.00
       H10          H  0.4141580  0.0863140 -0.3166660    0.00000       Uiso       1.00
       C11          C  0.3820810  0.1182690 -0.1827150    0.00000       Uiso       1.00
       H12          H  0.3735750  0.1267320 -0.3159650    0.00000       Uiso       1.00
       C13          C  0.5942470  0.9053080 -0.1828490    0.00000       Uiso       1.00
       H14          H  0.5858410  0.9136850 -0.3166660    0.00000       Uiso       1.00
       C15          C  0.6179180  0.8817300 -0.1827150    0.00000       Uiso       1.00
       H16          H  0.6264240  0.8732679 -0.3159650    0.00000       Uiso       1.00
       C17          C  0.9053080  0.5942470  0.1828490    0.00000       Uiso       1.00
       H18          H  0.9136850  0.5858410  0.3166660    0.00000       Uiso       1.00
       C19          C  0.8817300  0.6179180  0.1827150    0.00000       Uiso       1.00
       H20          H  0.8732679  0.6264240  0.3159650    0.00000       Uiso       1.00
       C21          C  0.0946910  0.4057520  0.1828490    0.00000       Uiso       1.00
       H22          H  0.0863140  0.4141580  0.3166660    0.00000       Uiso       1.00
       C23          C  0.1182690  0.3820810  0.1827150    0.00000       Uiso       1.00
       H24          H  0.1267320  0.3735750  0.3159650    0.00000       Uiso       1.00
       C25          C  0.5942470  0.0946910  0.1828490    0.00000       Uiso       1.00
       H26          H  0.5858410  0.0863140  0.3166660    0.00000       Uiso       1.00
       C27          C  0.6179180  0.1182690  0.1827150    0.00000       Uiso       1.00
       H28          H  0.6264240  0.1267320  0.3159650    0.00000       Uiso       1.00
       C29          C  0.4057520  0.9053080  0.1828490    0.00000       Uiso       1.00
       H30          H  0.4141580  0.9136850  0.3166660    0.00000       Uiso       1.00
       C31          C  0.3820810  0.8817300  0.1827150    0.00000       Uiso       1.00
       H32          H  0.3735750  0.8732679  0.3159650    0.00000       Uiso       1.00
       C33          C  0.9053080  0.4057520  0.1828490    0.00000       Uiso       1.00
       H34          H  0.9136850  0.4141580  0.3166660    0.00000       Uiso       1.00
       C35          C  0.8817300  0.3820810  0.1827150    0.00000       Uiso       1.00
       H36          H  0.8732679  0.3735750  0.3159650    0.00000       Uiso       1.00
       C37          C  0.0946910  0.5942470  0.1828490    0.00000       Uiso       1.00
       H38          H  0.0863140  0.5858410  0.3166660    0.00000       Uiso       1.00
       C39          C  0.1182690  0.6179180  0.1827150    0.00000       Uiso       1.00
       H40          H  0.1267320  0.6264240  0.3159650    0.00000       Uiso       1.00
       C41          C  0.5942470  0.9053080  0.1828490    0.00000       Uiso       1.00
       H42          H  0.5858410  0.9136850  0.3166660    0.00000       Uiso       1.00
       C43          C  0.6179180  0.8817300  0.1827150    0.00000       Uiso       1.00
       H44          H  0.6264240  0.8732679  0.3159650    0.00000       Uiso       1.00
       C45          C  0.4057520  0.0946910  0.1828490    0.00000       Uiso       1.00
       H46          H  0.4141580  0.0863140  0.3166660    0.00000       Uiso       1.00
       C47          C  0.3820810  0.1182690  0.1827150    0.00000       Uiso       1.00
       H48          H  0.3735750  0.1267320  0.3159650    0.00000       Uiso       1.00
       C49          C  0.0946910  0.4057520 -0.1828490    0.00000       Uiso       1.00
       H50          H  0.0863140  0.4141580 -0.3166660    0.00000       Uiso       1.00
       C51          C  0.1182690  0.3820810 -0.1827150    0.00000       Uiso       1.00
       H52          H  0.1267320  0.3735750 -0.3159650    0.00000       Uiso       1.00
       C53          C  0.9053080  0.5942470 -0.1828490    0.00000       Uiso       1.00
       H54          H  0.9136850  0.5858410 -0.3166660    0.00000       Uiso       1.00
       C55          C  0.8817300  0.6179180 -0.1827150    0.00000       Uiso       1.00
       H56          H  0.8732679  0.6264240 -0.3159650    0.00000       Uiso       1.00
       C57          C  0.4057520  0.9053080 -0.1828490    0.00000       Uiso       1.00
       H58          H  0.4141580  0.9136850 -0.3166660    0.00000       Uiso       1.00
       C59          C  0.3820810  0.8817300 -0.1827150    0.00000       Uiso       1.00
       H60          H  0.3735750  0.8732679 -0.3159650    0.00000       Uiso       1.00
       C61          C  0.5942470  0.0946910 -0.1828490    0.00000       Uiso       1.00
       H62          H  0.5858410  0.0863140 -0.3166660    0.00000       Uiso       1.00
       C63          C  0.6179180  0.1182690 -0.1827150    0.00000       Uiso       1.00
       H64          H  0.6264240  0.1267320 -0.3159650    0.00000       Uiso       1.00
       C65          C  0.7174040  0.7414790  0.0000000    0.00000       Uiso       1.00
       C66          C  0.7094770  0.8339220  0.0000000    0.00000       Uiso       1.00
       C67          C  0.7418820  0.8433060  0.0000000    0.00000       Uiso       1.00
       C68          C  0.7671740  0.8215390  0.0000000    0.00000       Uiso       1.00
       C69          C  0.6845960  0.8566230  0.0000000    0.00000       Uiso       1.00
       H70          H  0.7477180  0.8669021  0.0000000    0.00000       Uiso       1.00
       H71          H  0.7899210  0.8299700  0.0000000    0.00000       Uiso       1.00
       O72          O  0.6915400  0.8856970  0.0000000    0.00000       Uiso       1.00
       C73          C  0.2388770  0.2130100  0.0000000    0.00000       Uiso       1.00
       C74          C  0.3312650  0.2082730  0.0000000    0.00000       Uiso       1.00
       C75          C  0.3390620  0.2409750  0.0000000    0.00000       Uiso       1.00
       C76          C  0.3156940  0.2648750  0.0000000    0.00000       Uiso       1.00
       C77          C  0.3548970  0.1843020  0.0000000    0.00000       Uiso       1.00
       H78          H  0.3623440  0.2479920  0.0000000    0.00000       Uiso       1.00
       H79          H  0.3240080  0.2875920  0.0000000    0.00000       Uiso       1.00
       O80          O  0.3836770  0.1923560  0.0000000    0.00000       Uiso       1.00
       C81          C  0.0677790  0.5265470  0.0000000    0.00000       Uiso       1.00
       C82          C  0.0993410  0.5163100  0.0000000    0.00000       Uiso       1.00
       H83          H  0.1193490  0.5300720  0.0000000    0.00000       Uiso       1.00
       C84          C  0.0271210  0.5703090  0.0000000    0.00000       Uiso       1.00
       C85          C  0.0166160  0.6019370  0.0000000    0.00000       Uiso       1.00
       H86          H  0.0304780  0.6218820  0.0000000    0.00000       Uiso       1.00
       C87          C  0.0586000  0.5588540  0.0000000    0.00000       Uiso       1.00
       C88          C  0.0826280  0.5822950  0.0000000    0.00000       Uiso       1.00
       C89          C  0.1301560  0.6300010  0.0000000    0.00000       Uiso       1.00
       C90          C  0.7261320  0.7760680  0.0000000    0.00000       Uiso       1.00
       C91          C  0.7010450  0.8011950  0.0000000    0.00000       Uiso       1.00
       N92          N  0.6532960  0.8472970  0.0000000    0.00000       Uiso       1.00
       C93          C  0.2825960  0.2585210  0.0000000    0.00000       Uiso       1.00
       C94          C  0.2905220  0.1660780  0.0000000    0.00000       Uiso       1.00
       C95          C  0.2581180  0.1566930  0.0000000    0.00000       Uiso       1.00
       C96          C  0.2328250  0.1784600  0.0000000    0.00000       Uiso       1.00
       C97          C  0.3154040  0.1433770  0.0000000    0.00000       Uiso       1.00
       H98          H  0.2522810  0.1330980  0.0000000    0.00000       Uiso       1.00
       H99          H  0.2100780  0.1700290  0.0000000    0.00000       Uiso       1.00
      O100          O  0.3084600  0.1143030  0.0000000    0.00000       Uiso       1.00
      C101          C  0.7611219  0.7869900  0.0000000    0.00000       Uiso       1.00
      C102          C  0.6687340  0.7917270  0.0000000    0.00000       Uiso       1.00
      C103          C  0.6609380  0.7590250  0.0000000    0.00000       Uiso       1.00
      C104          C  0.6843060  0.7351250  0.0000000    0.00000       Uiso       1.00
      C105          C  0.6451030  0.8156970  0.0000000    0.00000       Uiso       1.00
      H106          H  0.6376550  0.7520070  0.0000000    0.00000       Uiso       1.00
      H107          H  0.6759920  0.7124070  0.0000000    0.00000       Uiso       1.00
      O108          O  0.6163220  0.8076430  0.0000000    0.00000       Uiso       1.00
      C109          C  0.9322200  0.4734530  0.0000000    0.00000       Uiso       1.00
      C110          C  0.9006580  0.4836890  0.0000000    0.00000       Uiso       1.00
      H111          H  0.8806500  0.4699270  0.0000000    0.00000       Uiso       1.00
      C112          C  0.9728790  0.4296910  0.0000000    0.00000       Uiso       1.00
      C113          C  0.9833831  0.3980620  0.0000000    0.00000       Uiso       1.00
      H114          H  0.9695219  0.3781170  0.0000000    0.00000       Uiso       1.00
      C115          C  0.9413990  0.4411460  0.0000000    0.00000       Uiso       1.00
      C116          C  0.9173710  0.4177050  0.0000000    0.00000       Uiso       1.00
      C117          C  0.8698431  0.3699980  0.0000000    0.00000       Uiso       1.00
      C118          C  0.2738680  0.2239320  0.0000000    0.00000       Uiso       1.00
      C119          C  0.2989550  0.1988050  0.0000000    0.00000       Uiso       1.00
      N120          N  0.3467030  0.1527020  0.0000000    0.00000       Uiso       1.00
      C121          C  0.2585210  0.7174040  0.0000000    0.00000       Uiso       1.00
      C122          C  0.1660780  0.7094770  0.0000000    0.00000       Uiso       1.00
      C123          C  0.1566930  0.7418820  0.0000000    0.00000       Uiso       1.00
      C124          C  0.1784600  0.7671740  0.0000000    0.00000       Uiso       1.00
      C125          C  0.1433770  0.6845960  0.0000000    0.00000       Uiso       1.00
      H126          H  0.1330980  0.7477180  0.0000000    0.00000       Uiso       1.00
      H127          H  0.1700290  0.7899210  0.0000000    0.00000       Uiso       1.00
      O128          O  0.1143030  0.6915400  0.0000000    0.00000       Uiso       1.00
      C129          C  0.7869900  0.2388770  0.0000000    0.00000       Uiso       1.00
      C130          C  0.7917270  0.3312650  0.0000000    0.00000       Uiso       1.00
      C131          C  0.7590250  0.3390620  0.0000000    0.00000       Uiso       1.00
      C132          C  0.7351250  0.3156940  0.0000000    0.00000       Uiso       1.00
      C133          C  0.8156970  0.3548970  0.0000000    0.00000       Uiso       1.00
      H134          H  0.7520070  0.3623440  0.0000000    0.00000       Uiso       1.00
      H135          H  0.7124070  0.3240080  0.0000000    0.00000       Uiso       1.00
      O136          O  0.8076430  0.3836770  0.0000000    0.00000       Uiso       1.00
      C137          C  0.4734530  0.0677790  0.0000000    0.00000       Uiso       1.00
      C138          C  0.4836890  0.0993410  0.0000000    0.00000       Uiso       1.00
      H139          H  0.4699270  0.1193490  0.0000000    0.00000       Uiso       1.00
      C140          C  0.4296910  0.0271210  0.0000000    0.00000       Uiso       1.00
      C141          C  0.3980620  0.0166160  0.0000000    0.00000       Uiso       1.00
      H142          H  0.3781170  0.0304780  0.0000000    0.00000       Uiso       1.00
      C143          C  0.4411460  0.0586000  0.0000000    0.00000       Uiso       1.00
      C144          C  0.4177050  0.0826280  0.0000000    0.00000       Uiso       1.00
      C145          C  0.3699980  0.1301560  0.0000000    0.00000       Uiso       1.00
      C146          C  0.2239320  0.7261320  0.0000000    0.00000       Uiso       1.00
      C147          C  0.1988050  0.7010450  0.0000000    0.00000       Uiso       1.00
      N148          N  0.1527020  0.6532960  0.0000000    0.00000       Uiso       1.00
      C149          C  0.7414790  0.2825960  0.0000000    0.00000       Uiso       1.00
      C150          C  0.8339220  0.2905220  0.0000000    0.00000       Uiso       1.00
      C151          C  0.8433060  0.2581180  0.0000000    0.00000       Uiso       1.00
      C152          C  0.8215390  0.2328250  0.0000000    0.00000       Uiso       1.00
      C153          C  0.8566230  0.3154040  0.0000000    0.00000       Uiso       1.00
      H154          H  0.8669021  0.2522810  0.0000000    0.00000       Uiso       1.00
      H155          H  0.8299700  0.2100780  0.0000000    0.00000       Uiso       1.00
      O156          O  0.8856970  0.3084600  0.0000000    0.00000       Uiso       1.00
      C157          C  0.2130100  0.7611219  0.0000000    0.00000       Uiso       1.00
      C158          C  0.2082730  0.6687340  0.0000000    0.00000       Uiso       1.00
      C159          C  0.2409750  0.6609380  0.0000000    0.00000       Uiso       1.00
      C160          C  0.2648750  0.6843060  0.0000000    0.00000       Uiso       1.00
      C161          C  0.1843020  0.6451030  0.0000000    0.00000       Uiso       1.00
      H162          H  0.2479920  0.6376550  0.0000000    0.00000       Uiso       1.00
      H163          H  0.2875920  0.6759920  0.0000000    0.00000       Uiso       1.00
      O164          O  0.1923560  0.6163220  0.0000000    0.00000       Uiso       1.00
      C165          C  0.5265470  0.9322200  0.0000000    0.00000       Uiso       1.00
      C166          C  0.5163100  0.9006580  0.0000000    0.00000       Uiso       1.00
      H167          H  0.5300720  0.8806500  0.0000000    0.00000       Uiso       1.00
      C168          C  0.5703090  0.9728790  0.0000000    0.00000       Uiso       1.00
      C169          C  0.6019370  0.9833831  0.0000000    0.00000       Uiso       1.00
      H170          H  0.6218820  0.9695219  0.0000000    0.00000       Uiso       1.00
      C171          C  0.5588540  0.9413990  0.0000000    0.00000       Uiso       1.00
      C172          C  0.5822950  0.9173710  0.0000000    0.00000       Uiso       1.00
      C173          C  0.6300010  0.8698431  0.0000000    0.00000       Uiso       1.00
      C174          C  0.7760680  0.2738680  0.0000000    0.00000       Uiso       1.00
      C175          C  0.8011950  0.2989550  0.0000000    0.00000       Uiso       1.00
      N176          N  0.8472970  0.3467030  0.0000000    0.00000       Uiso       1.00
      C177          C  0.2825960  0.7414790  0.0000000    0.00000       Uiso       1.00
      C178          C  0.2905220  0.8339220  0.0000000    0.00000       Uiso       1.00
      C179          C  0.2581180  0.8433060  0.0000000    0.00000       Uiso       1.00
      C180          C  0.2328250  0.8215390  0.0000000    0.00000       Uiso       1.00
      C181          C  0.3154040  0.8566230  0.0000000    0.00000       Uiso       1.00
      H182          H  0.2522810  0.8669021  0.0000000    0.00000       Uiso       1.00
      H183          H  0.2100780  0.8299700  0.0000000    0.00000       Uiso       1.00
      O184          O  0.3084600  0.8856970  0.0000000    0.00000       Uiso       1.00
      C185          C  0.7611219  0.2130100  0.0000000    0.00000       Uiso       1.00
      C186          C  0.6687340  0.2082730  0.0000000    0.00000       Uiso       1.00
      C187          C  0.6609380  0.2409750  0.0000000    0.00000       Uiso       1.00
      C188          C  0.6843060  0.2648750  0.0000000    0.00000       Uiso       1.00
      C189          C  0.6451030  0.1843020  0.0000000    0.00000       Uiso       1.00
      H190          H  0.6376550  0.2479920  0.0000000    0.00000       Uiso       1.00
      H191          H  0.6759920  0.2875920  0.0000000    0.00000       Uiso       1.00
      O192          O  0.6163220  0.1923560  0.0000000    0.00000       Uiso       1.00
      C193          C  0.9322200  0.5265470  0.0000000    0.00000       Uiso       1.00
      C194          C  0.9006580  0.5163100  0.0000000    0.00000       Uiso       1.00
      H195          H  0.8806500  0.5300720  0.0000000    0.00000       Uiso       1.00
      C196          C  0.9728790  0.5703090  0.0000000    0.00000       Uiso       1.00
      C197          C  0.9833831  0.6019370  0.0000000    0.00000       Uiso       1.00
      H198          H  0.9695219  0.6218820  0.0000000    0.00000       Uiso       1.00
      C199          C  0.9413990  0.5588540  0.0000000    0.00000       Uiso       1.00
      C200          C  0.9173710  0.5822950  0.0000000    0.00000       Uiso       1.00
      C201          C  0.8698431  0.6300010  0.0000000    0.00000       Uiso       1.00
      C202          C  0.2738680  0.7760680  0.0000000    0.00000       Uiso       1.00
      C203          C  0.2989550  0.8011950  0.0000000    0.00000       Uiso       1.00
      N204          N  0.3467030  0.8472970  0.0000000    0.00000       Uiso       1.00
      C205          C  0.7174040  0.2585210  0.0000000    0.00000       Uiso       1.00
      C206          C  0.7094770  0.1660780  0.0000000    0.00000       Uiso       1.00
      C207          C  0.7418820  0.1566930  0.0000000    0.00000       Uiso       1.00
      C208          C  0.7671740  0.1784600  0.0000000    0.00000       Uiso       1.00
      C209          C  0.6845960  0.1433770  0.0000000    0.00000       Uiso       1.00
      H210          H  0.7477180  0.1330980  0.0000000    0.00000       Uiso       1.00
      H211          H  0.7899210  0.1700290  0.0000000    0.00000       Uiso       1.00
      O212          O  0.6915400  0.1143030  0.0000000    0.00000       Uiso       1.00
      C213          C  0.2388770  0.7869900  0.0000000    0.00000       Uiso       1.00
      C214          C  0.3312650  0.7917270  0.0000000    0.00000       Uiso       1.00
      C215          C  0.3390620  0.7590250  0.0000000    0.00000       Uiso       1.00
      C216          C  0.3156940  0.7351250  0.0000000    0.00000       Uiso       1.00
      C217          C  0.3548970  0.8156970  0.0000000    0.00000       Uiso       1.00
      H218          H  0.3623440  0.7520070  0.0000000    0.00000       Uiso       1.00
      H219          H  0.3240080  0.7124070  0.0000000    0.00000       Uiso       1.00
      O220          O  0.3836770  0.8076430  0.0000000    0.00000       Uiso       1.00
      C221          C  0.0677790  0.4734530  0.0000000    0.00000       Uiso       1.00
      C222          C  0.0993410  0.4836890  0.0000000    0.00000       Uiso       1.00
      H223          H  0.1193490  0.4699270  0.0000000    0.00000       Uiso       1.00
      C224          C  0.0271210  0.4296910  0.0000000    0.00000       Uiso       1.00
      C225          C  0.0166160  0.3980620  0.0000000    0.00000       Uiso       1.00
      H226          H  0.0304780  0.3781170  0.0000000    0.00000       Uiso       1.00
      C227          C  0.0586000  0.4411460  0.0000000    0.00000       Uiso       1.00
      C228          C  0.0826280  0.4177050  0.0000000    0.00000       Uiso       1.00
      C229          C  0.1301560  0.3699980  0.0000000    0.00000       Uiso       1.00
      C230          C  0.7261320  0.2239320  0.0000000    0.00000       Uiso       1.00
      C231          C  0.7010450  0.1988050  0.0000000    0.00000       Uiso       1.00
      N232          N  0.6532960  0.1527020  0.0000000    0.00000       Uiso       1.00
      C233          C  0.7414790  0.7174040  0.0000000    0.00000       Uiso       1.00
      C234          C  0.8339220  0.7094770  0.0000000    0.00000       Uiso       1.00
      C235          C  0.8433060  0.7418820  0.0000000    0.00000       Uiso       1.00
      C236          C  0.8215390  0.7671740  0.0000000    0.00000       Uiso       1.00
      C237          C  0.8566230  0.6845960  0.0000000    0.00000       Uiso       1.00
      H238          H  0.8669021  0.7477180  0.0000000    0.00000       Uiso       1.00
      H239          H  0.8299700  0.7899210  0.0000000    0.00000       Uiso       1.00
      O240          O  0.8856970  0.6915400  0.0000000    0.00000       Uiso       1.00
      C241          C  0.2130100  0.2388770  0.0000000    0.00000       Uiso       1.00
      C242          C  0.2082730  0.3312650  0.0000000    0.00000       Uiso       1.00
      C243          C  0.2409750  0.3390620  0.0000000    0.00000       Uiso       1.00
      C244          C  0.2648750  0.3156940  0.0000000    0.00000       Uiso       1.00
      C245          C  0.1843020  0.3548970  0.0000000    0.00000       Uiso       1.00
      H246          H  0.2479920  0.3623440  0.0000000    0.00000       Uiso       1.00
      H247          H  0.2875920  0.3240080  0.0000000    0.00000       Uiso       1.00
      O248          O  0.1923560  0.3836770  0.0000000    0.00000       Uiso       1.00
      C249          C  0.5265470  0.0677790  0.0000000    0.00000       Uiso       1.00
      C250          C  0.5163100  0.0993410  0.0000000    0.00000       Uiso       1.00
      H251          H  0.5300720  0.1193490  0.0000000    0.00000       Uiso       1.00
      C252          C  0.5703090  0.0271210  0.0000000    0.00000       Uiso       1.00
      C253          C  0.6019370  0.0166160  0.0000000    0.00000       Uiso       1.00
      H254          H  0.6218820  0.0304780  0.0000000    0.00000       Uiso       1.00
      C255          C  0.5588540  0.0586000  0.0000000    0.00000       Uiso       1.00
      C256          C  0.5822950  0.0826280  0.0000000    0.00000       Uiso       1.00
      C257          C  0.6300010  0.1301560  0.0000000    0.00000       Uiso       1.00
      C258          C  0.7760680  0.7261320  0.0000000    0.00000       Uiso       1.00
      C259          C  0.8011950  0.7010450  0.0000000    0.00000       Uiso       1.00
      N260          N  0.8472970  0.6532960  0.0000000    0.00000       Uiso       1.00
      C261          C  0.2585210  0.2825960  0.0000000    0.00000       Uiso       1.00
      C262          C  0.1660780  0.2905220  0.0000000    0.00000       Uiso       1.00
      C263          C  0.1566930  0.2581180  0.0000000    0.00000       Uiso       1.00
      C264          C  0.1784600  0.2328250  0.0000000    0.00000       Uiso       1.00
      C265          C  0.1433770  0.3154040  0.0000000    0.00000       Uiso       1.00
      H266          H  0.1330980  0.2522810  0.0000000    0.00000       Uiso       1.00
      H267          H  0.1700290  0.2100780  0.0000000    0.00000       Uiso       1.00
      O268          O  0.1143030  0.3084600  0.0000000    0.00000       Uiso       1.00
      C269          C  0.7869900  0.7611219  0.0000000    0.00000       Uiso       1.00
      C270          C  0.7917270  0.6687340  0.0000000    0.00000       Uiso       1.00
      C271          C  0.7590250  0.6609380  0.0000000    0.00000       Uiso       1.00
      C272          C  0.7351250  0.6843060  0.0000000    0.00000       Uiso       1.00
      C273          C  0.8156970  0.6451030  0.0000000    0.00000       Uiso       1.00
      H274          H  0.7520070  0.6376550  0.0000000    0.00000       Uiso       1.00
      H275          H  0.7124070  0.6759920  0.0000000    0.00000       Uiso       1.00
      O276          O  0.8076430  0.6163220  0.0000000    0.00000       Uiso       1.00
      C277          C  0.4734530  0.9322200  0.0000000    0.00000       Uiso       1.00
      C278          C  0.4836890  0.9006580  0.0000000    0.00000       Uiso       1.00
      H279          H  0.4699270  0.8806500  0.0000000    0.00000       Uiso       1.00
      C280          C  0.4296910  0.9728790  0.0000000    0.00000       Uiso       1.00
      C281          C  0.3980620  0.9833831  0.0000000    0.00000       Uiso       1.00
      H282          H  0.3781170  0.9695219  0.0000000    0.00000       Uiso       1.00
      C283          C  0.4411460  0.9413990  0.0000000    0.00000       Uiso       1.00
      C284          C  0.4177050  0.9173710  0.0000000    0.00000       Uiso       1.00
      C285          C  0.3699980  0.8698431  0.0000000    0.00000       Uiso       1.00
      C286          C  0.2239320  0.2738680  0.0000000    0.00000       Uiso       1.00
      C287          C  0.1988050  0.2989550  0.0000000    0.00000       Uiso       1.00
      N288          N  0.1527020  0.3467030  0.0000000    0.00000       Uiso       1.00
      N289          N  0.0000000  0.5590880  0.0000000    0.00000       Uiso       1.00
      N290          N  0.0000000  0.4409110  0.0000000    0.00000       Uiso       1.00
      N291          N  0.4409110  0.0000000  0.0000000    0.00000       Uiso       1.00
      N292          N  0.5590880  0.0000000  0.0000000    0.00000       Uiso       1.00
      N293          N  0.0495450  0.5000000  0.0000000    0.00000       Uiso       1.00
      H294          H  0.0265010  0.5000000  0.0000000    0.00000       Uiso       1.00
      N295          N  0.9504539  0.5000000  0.0000000    0.00000       Uiso       1.00
      H296          H  0.9734980  0.5000000  0.0000000    0.00000       Uiso       1.00
      N297          N  0.5000000  0.0495450  0.0000000    0.00000       Uiso       1.00
      H298          H  0.5000000  0.0265010  0.0000000    0.00000       Uiso       1.00
      N299          N  0.5000000  0.9504539  0.0000000    0.00000       Uiso       1.00
      H300          H  0.5000000  0.9734980  0.0000000    0.00000       Uiso       1.00
