data_PI-COF-4-0P
_audit_creation_date              0000-00-00
_audit_creation_method            'LanYouShi'
_symmetry_space_group_name_H-M    'P1'
_cell_length_a                    20.4899998
_cell_length_b                    20.4899998
_cell_length_c                    32.2000008
_cell_angle_alpha                 90.0000000
_cell_angle_beta                  90.0000000
_cell_angle_gamma                 90.0000000
loop_
_atom_site_label
_atom_site_type_symbol
_atom_site_fract_x
_atom_site_fract_y
_atom_site_fract_z
_atom_site_U_iso_or_equiv
_atom_site_adp_type
_atom_site_occupancy
        C1          C  0.3476090  0.6970730  0.3011490    0.00000       Uiso       1.00
        C2          C  0.2943440  0.7164320  0.2738510    0.00000       Uiso       1.00
        O3          O  0.3650740  0.6409010  0.3056200    0.00000       Uiso       1.00
        H4          H  0.4398650  0.8570260  0.3571760    0.00000       Uiso       1.00
        C5          C  0.8476090  0.1970720  0.8011490    0.00000       Uiso       1.00
        C6          C  0.7943439  0.2164320  0.7738510    0.00000       Uiso       1.00
        O7          O  0.8650730  0.1409010  0.8056200    0.00000       Uiso       1.00
        H8          H  0.9398650  0.3570260  0.8571760    0.00000       Uiso       1.00
        C9          C  0.1523910  0.3029280  0.8011490    0.00000       Uiso       1.00
       C10          C  0.2056560  0.2835680  0.7738510    0.00000       Uiso       1.00
       O11          O  0.1349270  0.3590990  0.8056200    0.00000       Uiso       1.00
       H12          H  0.0601350  0.1429740  0.8571760    0.00000       Uiso       1.00
       C13          C  0.6523910  0.8029270  0.3011490    0.00000       Uiso       1.00
       C14          C  0.7056560  0.7835681  0.2738510    0.00000       Uiso       1.00
       O15          O  0.6349270  0.8590990  0.3056200    0.00000       Uiso       1.00
       H16          H  0.5601350  0.6429740  0.3571760    0.00000       Uiso       1.00
       C17          C  0.5529280  0.0976090  0.5511490    0.00000       Uiso       1.00
       C18          C  0.5335680  0.0443440  0.5238510    0.00000       Uiso       1.00
       O19          O  0.6090990  0.1150730  0.5556200    0.00000       Uiso       1.00
       H20          H  0.3929740  0.1898650  0.6071760    0.00000       Uiso       1.00
       C21          C  0.0529280  0.5976090  0.0511490    0.00000       Uiso       1.00
       C22          C  0.0335680  0.5443440  0.0238510    0.00000       Uiso       1.00
       O23          O  0.1090990  0.6150740  0.0556200    0.00000       Uiso       1.00
       H24          H  0.8929740  0.6898650  0.1071760    0.00000       Uiso       1.00
       C25          C  0.9470730  0.9023910  0.0511490    0.00000       Uiso       1.00
       C26          C  0.9664320  0.9556559  0.0238510    0.00000       Uiso       1.00
       O27          O  0.8909010  0.8849269  0.0556200    0.00000       Uiso       1.00
       H28          H  0.1070260  0.8101350  0.1071760    0.00000       Uiso       1.00
       C29          C  0.4470720  0.4023910  0.5511490    0.00000       Uiso       1.00
       C30          C  0.4664320  0.4556560  0.5238510    0.00000       Uiso       1.00
       O31          O  0.3909010  0.3849260  0.5556200    0.00000       Uiso       1.00
       H32          H  0.6070260  0.3101350  0.6071760    0.00000       Uiso       1.00
       C33          C  0.1523910  0.6970730  0.1988510    0.00000       Uiso       1.00
       C34          C  0.2056560  0.7164320  0.2261490    0.00000       Uiso       1.00
       O35          O  0.1349270  0.6409010  0.1943800    0.00000       Uiso       1.00
       H36          H  0.0601350  0.8570260  0.1428240    0.00000       Uiso       1.00
       C37          C  0.6523910  0.1970720  0.6988510    0.00000       Uiso       1.00
       C38          C  0.7056560  0.2164320  0.7261490    0.00000       Uiso       1.00
       O39          O  0.6349270  0.1409010  0.6943800    0.00000       Uiso       1.00
       H40          H  0.5601350  0.3570260  0.6428240    0.00000       Uiso       1.00
       C41          C  0.3476090  0.3029280  0.6988510    0.00000       Uiso       1.00
       C42          C  0.2943440  0.2835680  0.7261490    0.00000       Uiso       1.00
       O43          O  0.3650740  0.3590990  0.6943800    0.00000       Uiso       1.00
       H44          H  0.4398650  0.1429740  0.6428240    0.00000       Uiso       1.00
       C45          C  0.8476090  0.8029270  0.1988510    0.00000       Uiso       1.00
       C46          C  0.7943439  0.7835681  0.2261490    0.00000       Uiso       1.00
       O47          O  0.8650730  0.8590990  0.1943800    0.00000       Uiso       1.00
       H48          H  0.9398650  0.6429740  0.1428240    0.00000       Uiso       1.00
       C49          C  0.9470730  0.0976090  0.9488510    0.00000       Uiso       1.00
       C50          C  0.9664320  0.0443440  0.9761490    0.00000       Uiso       1.00
       O51          O  0.8909010  0.1150730  0.9443800    0.00000       Uiso       1.00
       H52          H  0.1070260  0.1898650  0.8928240    0.00000       Uiso       1.00
       C53          C  0.4470720  0.5976090  0.4488510    0.00000       Uiso       1.00
       C54          C  0.4664320  0.5443440  0.4761490    0.00000       Uiso       1.00
       O55          O  0.3909010  0.6150740  0.4443800    0.00000       Uiso       1.00
       H56          H  0.6070260  0.6898650  0.3928240    0.00000       Uiso       1.00
       C57          C  0.5529280  0.9023910  0.4488510    0.00000       Uiso       1.00
       C58          C  0.5335680  0.9556559  0.4761490    0.00000       Uiso       1.00
       O59          O  0.6090990  0.8849269  0.4443800    0.00000       Uiso       1.00
       H60          H  0.3929740  0.8101350  0.3928240    0.00000       Uiso       1.00
       C61          C  0.0529280  0.4023910  0.9488510    0.00000       Uiso       1.00
       C62          C  0.0335680  0.4556560  0.9761490    0.00000       Uiso       1.00
       O63          O  0.1090990  0.3849260  0.9443800    0.00000       Uiso       1.00
       H64          H  0.8929740  0.3101350  0.8928240    0.00000       Uiso       1.00
       C65          C  0.6523910  0.3029280  0.6988510    0.00000       Uiso       1.00
       C66          C  0.7056560  0.2835680  0.7261490    0.00000       Uiso       1.00
       O67          O  0.6349270  0.3590990  0.6943800    0.00000       Uiso       1.00
       H68          H  0.5601350  0.1429740  0.6428240    0.00000       Uiso       1.00
       C69          C  0.1523910  0.8029270  0.1988510    0.00000       Uiso       1.00
       C70          C  0.2056560  0.7835681  0.2261490    0.00000       Uiso       1.00
       O71          O  0.1349270  0.8590990  0.1943800    0.00000       Uiso       1.00
       H72          H  0.0601350  0.6429740  0.1428240    0.00000       Uiso       1.00
       C73          C  0.8476090  0.6970730  0.1988510    0.00000       Uiso       1.00
       C74          C  0.7943439  0.7164320  0.2261490    0.00000       Uiso       1.00
       O75          O  0.8650730  0.6409010  0.1943800    0.00000       Uiso       1.00
       H76          H  0.9398650  0.8570260  0.1428240    0.00000       Uiso       1.00
       C77          C  0.3476090  0.1970720  0.6988510    0.00000       Uiso       1.00
       C78          C  0.2943440  0.2164320  0.7261490    0.00000       Uiso       1.00
       O79          O  0.3650740  0.1409010  0.6943800    0.00000       Uiso       1.00
       H80          H  0.4398650  0.3570260  0.6428240    0.00000       Uiso       1.00
       C81          C  0.4470720  0.9023910  0.4488510    0.00000       Uiso       1.00
       C82          C  0.4664320  0.9556559  0.4761490    0.00000       Uiso       1.00
       O83          O  0.3909010  0.8849269  0.4443800    0.00000       Uiso       1.00
       H84          H  0.6070260  0.8101350  0.3928240    0.00000       Uiso       1.00
       C85          C  0.9470730  0.4023910  0.9488510    0.00000       Uiso       1.00
       C86          C  0.9664320  0.4556560  0.9761490    0.00000       Uiso       1.00
       O87          O  0.8909010  0.3849260  0.9443800    0.00000       Uiso       1.00
       H88          H  0.1070260  0.3101350  0.8928240    0.00000       Uiso       1.00
       C89          C  0.0529280  0.0976090  0.9488510    0.00000       Uiso       1.00
       C90          C  0.0335680  0.0443440  0.9761490    0.00000       Uiso       1.00
       O91          O  0.1090990  0.1150730  0.9443800    0.00000       Uiso       1.00
       H92          H  0.8929740  0.1898650  0.8928240    0.00000       Uiso       1.00
       C93          C  0.5529280  0.5976090  0.4488510    0.00000       Uiso       1.00
       C94          C  0.5335680  0.5443440  0.4761490    0.00000       Uiso       1.00
       O95          O  0.6090990  0.6150740  0.4443800    0.00000       Uiso       1.00
       H96          H  0.3929740  0.6898650  0.3928240    0.00000       Uiso       1.00
       C97          C  0.8476090  0.3029280  0.8011490    0.00000       Uiso       1.00
       C98          C  0.7943439  0.2835680  0.7738510    0.00000       Uiso       1.00
       O99          O  0.8650730  0.3590990  0.8056200    0.00000       Uiso       1.00
      H100          H  0.9398650  0.1429740  0.8571760    0.00000       Uiso       1.00
      C101          C  0.3476090  0.8029270  0.3011490    0.00000       Uiso       1.00
      C102          C  0.2943440  0.7835681  0.2738510    0.00000       Uiso       1.00
      O103          O  0.3650740  0.8590990  0.3056200    0.00000       Uiso       1.00
      H104          H  0.4398650  0.6429740  0.3571760    0.00000       Uiso       1.00
      C105          C  0.6523910  0.6970730  0.3011490    0.00000       Uiso       1.00
      C106          C  0.7056560  0.7164320  0.2738510    0.00000       Uiso       1.00
      O107          O  0.6349270  0.6409010  0.3056200    0.00000       Uiso       1.00
      H108          H  0.5601350  0.8570260  0.3571760    0.00000       Uiso       1.00
      C109          C  0.1523910  0.1970720  0.8011490    0.00000       Uiso       1.00
      C110          C  0.2056560  0.2164320  0.7738510    0.00000       Uiso       1.00
      O111          O  0.1349270  0.1409010  0.8056200    0.00000       Uiso       1.00
      H112          H  0.0601350  0.3570260  0.8571760    0.00000       Uiso       1.00
      C113          C  0.0529280  0.9023910  0.0511490    0.00000       Uiso       1.00
      C114          C  0.0335680  0.9556559  0.0238510    0.00000       Uiso       1.00
      O115          O  0.1090990  0.8849269  0.0556200    0.00000       Uiso       1.00
      H116          H  0.8929740  0.8101350  0.1071760    0.00000       Uiso       1.00
      C117          C  0.5529280  0.4023910  0.5511490    0.00000       Uiso       1.00
      C118          C  0.5335680  0.4556560  0.5238510    0.00000       Uiso       1.00
      O119          O  0.6090990  0.3849260  0.5556200    0.00000       Uiso       1.00
      H120          H  0.3929740  0.3101350  0.6071760    0.00000       Uiso       1.00
      C121          C  0.4470720  0.0976090  0.5511490    0.00000       Uiso       1.00
      C122          C  0.4664320  0.0443440  0.5238510    0.00000       Uiso       1.00
      O123          O  0.3909010  0.1150730  0.5556200    0.00000       Uiso       1.00
      H124          H  0.6070260  0.1898650  0.6071760    0.00000       Uiso       1.00
      C125          C  0.9470730  0.5976090  0.0511490    0.00000       Uiso       1.00
      C126          C  0.9664320  0.5443440  0.0238510    0.00000       Uiso       1.00
      O127          O  0.8909010  0.6150740  0.0556200    0.00000       Uiso       1.00
      H128          H  0.1070260  0.6898650  0.1071760    0.00000       Uiso       1.00
      C129          C  0.4375090  0.7500000  0.3460960    0.00000       Uiso       1.00
      N130          N  0.3782510  0.7500000  0.3189330    0.00000       Uiso       1.00
      C131          C  0.0624910  0.2500000  0.8460960    0.00000       Uiso       1.00
      N132          N  0.1217490  0.2500000  0.8189330    0.00000       Uiso       1.00
      C133          C  0.5000000  0.1875090  0.5960960    0.00000       Uiso       1.00
      N134          N  0.5000000  0.1282510  0.5689330    0.00000       Uiso       1.00
      C135          C  0.0000000  0.6875090  0.0960960    0.00000       Uiso       1.00
      N136          N  0.0000000  0.6282510  0.0689330    0.00000       Uiso       1.00
      C137          C  0.0000000  0.8124909  0.0960960    0.00000       Uiso       1.00
      N138          N  0.0000000  0.8717490  0.0689330    0.00000       Uiso       1.00
      C139          C  0.5000000  0.3124910  0.5960960    0.00000       Uiso       1.00
      N140          N  0.5000000  0.3717490  0.5689330    0.00000       Uiso       1.00
      C141          C  0.0624910  0.7500000  0.1539040    0.00000       Uiso       1.00
      N142          N  0.1217490  0.7500000  0.1810670    0.00000       Uiso       1.00
      C143          C  0.4375090  0.2500000  0.6539040    0.00000       Uiso       1.00
      N144          N  0.3782510  0.2500000  0.6810670    0.00000       Uiso       1.00
      C145          C  0.0000000  0.1875090  0.9039040    0.00000       Uiso       1.00
      N146          N  0.0000000  0.1282510  0.9310670    0.00000       Uiso       1.00
      C147          C  0.5000000  0.6875090  0.4039040    0.00000       Uiso       1.00
      N148          N  0.5000000  0.6282510  0.4310670    0.00000       Uiso       1.00
      C149          C  0.5000000  0.8124909  0.4039040    0.00000       Uiso       1.00
      N150          N  0.5000000  0.8717490  0.4310670    0.00000       Uiso       1.00
      C151          C  0.0000000  0.3124910  0.9039040    0.00000       Uiso       1.00
      N152          N  0.0000000  0.3717490  0.9310670    0.00000       Uiso       1.00
      C153          C  0.5624910  0.2500000  0.6539040    0.00000       Uiso       1.00
      N154          N  0.6217490  0.2500000  0.6810670    0.00000       Uiso       1.00
      C155          C  0.9375089  0.7500000  0.1539040    0.00000       Uiso       1.00
      N156          N  0.8782510  0.7500000  0.1810670    0.00000       Uiso       1.00
      C157          C  0.9375089  0.2500000  0.8460960    0.00000       Uiso       1.00
      N158          N  0.8782510  0.2500000  0.8189330    0.00000       Uiso       1.00
      C159          C  0.5624910  0.7500000  0.3460960    0.00000       Uiso       1.00
      N160          N  0.6217490  0.7500000  0.3189330    0.00000       Uiso       1.00
      C161          C  0.4390160  0.8109840  0.3750000    0.00000       Uiso       1.00
      C162          C  0.9390159  0.3109840  0.8750000    0.00000       Uiso       1.00
      C163          C  0.0609840  0.1890160  0.8750000    0.00000       Uiso       1.00
      C164          C  0.5609840  0.6890160  0.3750000    0.00000       Uiso       1.00
      C165          C  0.4390160  0.1890160  0.6250000    0.00000       Uiso       1.00
      C166          C  0.9390159  0.6890160  0.1250000    0.00000       Uiso       1.00
      C167          C  0.0609840  0.8109840  0.1250000    0.00000       Uiso       1.00
      C168          C  0.5609840  0.3109840  0.6250000    0.00000       Uiso       1.00
      C169          C  0.5609840  0.1890160  0.6250000    0.00000       Uiso       1.00
      C170          C  0.0609840  0.6890160  0.1250000    0.00000       Uiso       1.00
      C171          C  0.9390159  0.8109840  0.1250000    0.00000       Uiso       1.00
      C172          C  0.4390160  0.3109840  0.6250000    0.00000       Uiso       1.00
      C173          C  0.5609840  0.8109840  0.3750000    0.00000       Uiso       1.00
      C174          C  0.0609840  0.3109840  0.8750000    0.00000       Uiso       1.00
      C175          C  0.9390159  0.1890160  0.8750000    0.00000       Uiso       1.00
      C176          C  0.4390160  0.6890160  0.3750000    0.00000       Uiso       1.00
      C177          C  0.2500000  0.8200951  0.2500000    0.00000       Uiso       1.00
      H178          H  0.2500000  0.8730470  0.2500000    0.00000       Uiso       1.00
      C179          C  0.7500000  0.3200950  0.7500000    0.00000       Uiso       1.00
      H180          H  0.7500000  0.3730470  0.7500000    0.00000       Uiso       1.00
      C181          C  0.2500000  0.1799050  0.7500000    0.00000       Uiso       1.00
      H182          H  0.2500000  0.1269530  0.7500000    0.00000       Uiso       1.00
      C183          C  0.7500000  0.6799050  0.2500000    0.00000       Uiso       1.00
      H184          H  0.7500000  0.6269530  0.2500000    0.00000       Uiso       1.00
      C185          C  0.4299050  0.0000000  0.5000000    0.00000       Uiso       1.00
      H186          H  0.3769530  0.0000000  0.5000000    0.00000       Uiso       1.00
      C187          C  0.9299050  0.5000000  0.0000000    0.00000       Uiso       1.00
      H188          H  0.8769530  0.5000000  0.0000000    0.00000       Uiso       1.00
      C189          C  0.0700950  0.0000000  0.0000000    0.00000       Uiso       1.00
      H190          H  0.1230470  0.0000000  0.0000000    0.00000       Uiso       1.00
      C191          C  0.5700950  0.5000000  0.5000000    0.00000       Uiso       1.00
      H192          H  0.6230470  0.5000000  0.5000000    0.00000       Uiso       1.00
      C193          C  0.7500000  0.1799050  0.7500000    0.00000       Uiso       1.00
      H194          H  0.7500000  0.1269530  0.7500000    0.00000       Uiso       1.00
      C195          C  0.2500000  0.6799050  0.2500000    0.00000       Uiso       1.00
      H196          H  0.2500000  0.6269530  0.2500000    0.00000       Uiso       1.00
      C197          C  0.7500000  0.8200951  0.2500000    0.00000       Uiso       1.00
      H198          H  0.7500000  0.8730470  0.2500000    0.00000       Uiso       1.00
      C199          C  0.2500000  0.3200950  0.7500000    0.00000       Uiso       1.00
      H200          H  0.2500000  0.3730470  0.7500000    0.00000       Uiso       1.00
      C201          C  0.5700950  0.0000000  0.5000000    0.00000       Uiso       1.00
      H202          H  0.6230470  0.0000000  0.5000000    0.00000       Uiso       1.00
      C203          C  0.0700950  0.5000000  0.0000000    0.00000       Uiso       1.00
      H204          H  0.1230470  0.5000000  0.0000000    0.00000       Uiso       1.00
      C205          C  0.9299050  0.0000000  0.0000000    0.00000       Uiso       1.00
      H206          H  0.8769530  0.0000000  0.0000000    0.00000       Uiso       1.00
      C207          C  0.4299050  0.5000000  0.5000000    0.00000       Uiso       1.00
      H208          H  0.3769530  0.5000000  0.5000000    0.00000       Uiso       1.00
      C209          C  0.5000000  0.7500000  0.4301580    0.00000       Uiso       1.00
      C210          C  0.0000000  0.2500000  0.9301580    0.00000       Uiso       1.00
      C211          C  0.5000000  0.2500000  0.6801580    0.00000       Uiso       1.00
      C212          C  0.0000000  0.7500000  0.1801580    0.00000       Uiso       1.00
      C213          C  0.0000000  0.7500000  0.0698420    0.00000       Uiso       1.00
      C214          C  0.5000000  0.2500000  0.5698420    0.00000       Uiso       1.00
      C215          C  0.0000000  0.2500000  0.8198420    0.00000       Uiso       1.00
      C216          C  0.5000000  0.7500000  0.3198420    0.00000       Uiso       1.00
      H217          H  0.5000000  0.7327370  0.4628060    0.00000       Uiso       1.00
      H218          H  0.0000000  0.2327370  0.9628060    0.00000       Uiso       1.00
      H219          H  0.0000000  0.2672630  0.9628060    0.00000       Uiso       1.00
      H220          H  0.5000000  0.7672630  0.4628060    0.00000       Uiso       1.00
      H221          H  0.5172630  0.2500000  0.7128060    0.00000       Uiso       1.00
      H222          H  0.9827369  0.7500000  0.2128060    0.00000       Uiso       1.00
      H223          H  0.0000000  0.7327370  0.0371940    0.00000       Uiso       1.00
      H224          H  0.5000000  0.2327370  0.5371940    0.00000       Uiso       1.00
      H225          H  0.5000000  0.2672630  0.5371940    0.00000       Uiso       1.00
      H226          H  0.0000000  0.7672630  0.0371940    0.00000       Uiso       1.00
      H227          H  0.9827369  0.2500000  0.7871940    0.00000       Uiso       1.00
      H228          H  0.5172630  0.7500000  0.2871940    0.00000       Uiso       1.00
      H229          H  0.4827370  0.7500000  0.2871940    0.00000       Uiso       1.00
      H230          H  0.0172630  0.2500000  0.7871940    0.00000       Uiso       1.00
      H231          H  0.0172630  0.7500000  0.2128060    0.00000       Uiso       1.00
      H232          H  0.4827370  0.2500000  0.7128060    0.00000       Uiso       1.00
