data_PI-COF-4-2P
_audit_creation_date              0000-00-00
_audit_creation_method            'LanYouShi'
_symmetry_space_group_name_H-M    'P1'
_cell_length_a                    15.4200001
_cell_length_b                    15.4200001
_cell_length_c                    14.0600004
_cell_angle_alpha                 90.0000000
_cell_angle_beta                  90.0000000
_cell_angle_gamma                 90.0000000
loop_
_atom_site_label
_atom_site_type_symbol
_atom_site_fract_x
_atom_site_fract_y
_atom_site_fract_z
_atom_site_U_iso_or_equiv
_atom_site_adp_type
_atom_site_occupancy
        C1          C  0.9406300  0.0593700  0.5635100    0.00000       Uiso       1.00
        C2          C  0.8772600  0.1227400  0.7200200    0.00000       Uiso       1.00
        C3          C  0.8129500  0.1870500  0.7475300    0.00000       Uiso       1.00
        C4          C  0.8244800  0.1755100  0.5874400    0.00000       Uiso       1.00
        C5          C  0.7797100  0.2202900  0.6639700    0.00000       Uiso       1.00
        C6          C  0.7845900  0.2154100  0.8370200    0.00000       Uiso       1.00
        O7          O  0.9195300  0.0804700  0.7766001    0.00000       Uiso       1.00
        O8          O  0.8113000  0.1887000  0.5032400    0.00000       Uiso       1.00
        N9          N  0.8835900  0.1164100  0.6222900    0.00000       Uiso       1.00
       H10          H  0.9611100  0.1591000  0.4531900    0.00000       Uiso       1.00
       H11          H  0.8106100  0.1893900  0.9025200    0.00000       Uiso       1.00
       C12          C  0.0593700  0.9406300  0.5635100    0.00000       Uiso       1.00
       C13          C  0.0000000  0.8838400  0.5000000    0.00000       Uiso       1.00
       C14          C  0.1227400  0.8772600  0.7200200    0.00000       Uiso       1.00
       C15          C  0.1870500  0.8129500  0.7475300    0.00000       Uiso       1.00
       C16          C  0.1755200  0.8244900  0.5874400    0.00000       Uiso       1.00
       C17          C  0.2202900  0.7797100  0.6639700    0.00000       Uiso       1.00
       C18          C  0.2154100  0.7845900  0.8370200    0.00000       Uiso       1.00
       O19          O  0.0804700  0.9195300  0.7766001    0.00000       Uiso       1.00
       O20          O  0.1887000  0.8113000  0.5032400    0.00000       Uiso       1.00
       N21          N  0.1164100  0.8835900  0.6222900    0.00000       Uiso       1.00
       H22          H  0.0388900  0.8409000  0.4531900    0.00000       Uiso       1.00
       H23          H  0.1893900  0.8106100  0.9025200    0.00000       Uiso       1.00
       C24          C  0.4406300  0.4406300  0.0635100    0.00000       Uiso       1.00
       C25          C  0.5593700  0.5593700  0.0635100    0.00000       Uiso       1.00
       C26          C  0.3838400  0.5000000  0.0000000    0.00000       Uiso       1.00
       C27          C  0.6161600  0.5000000  0.0000000    0.00000       Uiso       1.00
       C28          C  0.3772600  0.3772600  0.2200200    0.00000       Uiso       1.00
       C29          C  0.6227400  0.6227400  0.2200200    0.00000       Uiso       1.00
       C30          C  0.3129500  0.3129500  0.2475300    0.00000       Uiso       1.00
       C31          C  0.6870500  0.6870500  0.2475300    0.00000       Uiso       1.00
       C32          C  0.3244900  0.3244800  0.0874400    0.00000       Uiso       1.00
       C33          C  0.6755100  0.6755200  0.0874400    0.00000       Uiso       1.00
       C34          C  0.2797100  0.2797100  0.1639700    0.00000       Uiso       1.00
       C35          C  0.7202900  0.7202900  0.1639700    0.00000       Uiso       1.00
       C36          C  0.2845900  0.2845900  0.3370200    0.00000       Uiso       1.00
       C37          C  0.7154100  0.7154100  0.3370200    0.00000       Uiso       1.00
       O38          O  0.4195300  0.4195300  0.2766000    0.00000       Uiso       1.00
       O39          O  0.5804700  0.5804700  0.2766000    0.00000       Uiso       1.00
       O40          O  0.3113000  0.3113000  0.0032400    0.00000       Uiso       1.00
       O41          O  0.6887000  0.6887000  0.0032400    0.00000       Uiso       1.00
       N42          N  0.3835900  0.3835900  0.1222900    0.00000       Uiso       1.00
       N43          N  0.6164100  0.6164100  0.1222900    0.00000       Uiso       1.00
       H44          H  0.3409000  0.5388900  0.0468100    0.00000       Uiso       1.00
       H45          H  0.6591000  0.4611100  0.0468100    0.00000       Uiso       1.00
       H46          H  0.3106100  0.3106100  0.4025200    0.00000       Uiso       1.00
       H47          H  0.6893900  0.6893900  0.4025200    0.00000       Uiso       1.00
       H48          H  0.0417200  0.0417200  0.6707500    0.00000       Uiso       1.00
       H49          H  0.9582800  0.9582800  0.6707500    0.00000       Uiso       1.00
       C50          C  0.5000000  0.5000000  0.1252300    0.00000       Uiso       1.00
       C51          C  0.5593700  0.4406300  0.9364900    0.00000       Uiso       1.00
       C52          C  0.4406300  0.5593700  0.9364900    0.00000       Uiso       1.00
       C53          C  0.6227400  0.3772600  0.7799800    0.00000       Uiso       1.00
       C54          C  0.3772600  0.6227400  0.7799800    0.00000       Uiso       1.00
       C55          C  0.6870500  0.3129500  0.7524700    0.00000       Uiso       1.00
       C56          C  0.3129500  0.6870500  0.7524700    0.00000       Uiso       1.00
       C57          C  0.6755200  0.3244900  0.9125600    0.00000       Uiso       1.00
       C58          C  0.3244800  0.6755100  0.9125600    0.00000       Uiso       1.00
       C59          C  0.7202900  0.2797100  0.8360300    0.00000       Uiso       1.00
       C60          C  0.2797100  0.7202900  0.8360300    0.00000       Uiso       1.00
       C61          C  0.7154100  0.2845900  0.6629801    0.00000       Uiso       1.00
       C62          C  0.2845900  0.7154100  0.6629801    0.00000       Uiso       1.00
       O63          O  0.5804700  0.4195300  0.7234000    0.00000       Uiso       1.00
       O64          O  0.4195300  0.5804700  0.7234000    0.00000       Uiso       1.00
       O65          O  0.6887000  0.3113000  0.9967600    0.00000       Uiso       1.00
       O66          O  0.3113000  0.6887000  0.9967600    0.00000       Uiso       1.00
       N67          N  0.6164100  0.3835900  0.8777100    0.00000       Uiso       1.00
       N68          N  0.3835900  0.6164100  0.8777100    0.00000       Uiso       1.00
       H69          H  0.4611100  0.3409000  0.9531900    0.00000       Uiso       1.00
       H70          H  0.5388900  0.6591000  0.9531900    0.00000       Uiso       1.00
       H71          H  0.6893900  0.3106100  0.5974800    0.00000       Uiso       1.00
       H72          H  0.3106100  0.6893900  0.5974800    0.00000       Uiso       1.00
       H73          H  0.9582800  0.0417200  0.3292500    0.00000       Uiso       1.00
       H74          H  0.0417200  0.9582800  0.3292500    0.00000       Uiso       1.00
       C75          C  0.5000000  0.5000000  0.8747700    0.00000       Uiso       1.00
       C76          C  0.0593700  0.0593700  0.4364900    0.00000       Uiso       1.00
       C77          C  0.1161600  0.0000000  0.5000000    0.00000       Uiso       1.00
       C78          C  0.1227400  0.1227400  0.2799800    0.00000       Uiso       1.00
       C79          C  0.1870500  0.1870500  0.2524700    0.00000       Uiso       1.00
       C80          C  0.1755100  0.1755200  0.4125600    0.00000       Uiso       1.00
       C81          C  0.2202900  0.2202900  0.3360300    0.00000       Uiso       1.00
       C82          C  0.2154100  0.2154100  0.1629800    0.00000       Uiso       1.00
       O83          O  0.0804700  0.0804700  0.2234000    0.00000       Uiso       1.00
       O84          O  0.1887000  0.1887000  0.4967600    0.00000       Uiso       1.00
       N85          N  0.1164100  0.1164100  0.3777100    0.00000       Uiso       1.00
       H86          H  0.1591000  0.0388900  0.5468100    0.00000       Uiso       1.00
       H87          H  0.1893900  0.1893900  0.0974800    0.00000       Uiso       1.00
       C88          C  0.0000000  0.0000000  0.3747700    0.00000       Uiso       1.00
       C89          C  0.9406300  0.9406300  0.4364900    0.00000       Uiso       1.00
       C90          C  0.8772600  0.8772600  0.2799800    0.00000       Uiso       1.00
       C91          C  0.8129500  0.8129500  0.2524700    0.00000       Uiso       1.00
       C92          C  0.8244900  0.8244800  0.4125600    0.00000       Uiso       1.00
       C93          C  0.7797100  0.7797100  0.3360300    0.00000       Uiso       1.00
       C94          C  0.7845900  0.7845900  0.1629800    0.00000       Uiso       1.00
       O95          O  0.9195300  0.9195300  0.2234000    0.00000       Uiso       1.00
       O96          O  0.8113000  0.8113000  0.4967600    0.00000       Uiso       1.00
       N97          N  0.8835900  0.8835900  0.3777100    0.00000       Uiso       1.00
       H98          H  0.8409000  0.9611100  0.5468100    0.00000       Uiso       1.00
       H99          H  0.8106100  0.8106100  0.0974800    0.00000       Uiso       1.00
      C100          C  0.0000000  0.1161600  0.5000000    0.00000       Uiso       1.00
      H101          H  0.0388900  0.1591000  0.5468100    0.00000       Uiso       1.00
      C102          C  0.0000000  0.0000000  0.6252300    0.00000       Uiso       1.00
      C103          C  0.5000000  0.3838400  0.0000000    0.00000       Uiso       1.00
      C104          C  0.5000000  0.6161600  0.0000000    0.00000       Uiso       1.00
      H105          H  0.5388900  0.3409000  0.0468100    0.00000       Uiso       1.00
      H106          H  0.4611100  0.6591000  0.0468100    0.00000       Uiso       1.00
      C107          C  0.8838400  0.0000000  0.5000000    0.00000       Uiso       1.00
      H108          H  0.8409000  0.0388900  0.4531900    0.00000       Uiso       1.00
      H109          H  0.3409000  0.4611100  0.9531900    0.00000       Uiso       1.00
      H110          H  0.6591000  0.5388900  0.9531900    0.00000       Uiso       1.00
      H111          H  0.9611100  0.8409000  0.5468100    0.00000       Uiso       1.00
      H112          H  0.1591000  0.9611100  0.4531900    0.00000       Uiso       1.00
      H113          H  0.5417200  0.4582800  0.1707500    0.00000       Uiso       1.00
      H114          H  0.4582800  0.5417200  0.1707500    0.00000       Uiso       1.00
      H115          H  0.4582800  0.4582800  0.8292500    0.00000       Uiso       1.00
      H116          H  0.5417200  0.5417200  0.8292500    0.00000       Uiso       1.00
