data_PI-COF-5-0P
_audit_creation_date              0000-00-00
_audit_creation_method            'LanYouShi'
_symmetry_space_group_name_H-M    'P1'
_cell_length_a                    30.8041992
_cell_length_b                    30.8041992
_cell_length_c                    30.8041992
_cell_angle_alpha                 124.1845016
_cell_angle_beta                  124.1845016
_cell_angle_gamma                 82.8933029
loop_
_atom_site_label
_atom_site_type_symbol
_atom_site_fract_x
_atom_site_fract_y
_atom_site_fract_z
_atom_site_U_iso_or_equiv
_atom_site_adp_type
_atom_site_occupancy
        H1          H  0.3937820  0.4813020  0.9571921    0.00000       Uiso       1.00
        C2          C  0.4408870  0.3220570  0.8807119    0.00000       Uiso       1.00
        C3          C  0.4336770  0.2325270  0.8644520    0.00000       Uiso       1.00
        C4          C  0.4059770  0.1747670  0.8102220    0.00000       Uiso       1.00
        C5          C  0.3863870  0.2269470  0.7744920    0.00000       Uiso       1.00
        C6          C  0.3761460  0.1712460  0.7534720    0.00000       Uiso       1.00
        C7          C  0.4061120  0.1286710  0.8091920    0.00000       Uiso       1.00
        C8          C  0.4048760  0.5270750  0.0506000    0.00000       Uiso       1.00
        C9          C  0.4801260  0.5226550  0.0429200    0.00000       Uiso       1.00
       C10          C  0.4239160  0.5084450  0.0129900    0.00000       Uiso       1.00
       C11          C  0.4974660  0.5738860  0.1493000    0.00000       Uiso       1.00
       C12          C  0.5165760  0.5552760  0.1117600    0.00000       Uiso       1.00
       O13          O  0.4638220  0.2512020  0.9222320    0.00000       Uiso       1.00
       O14          O  0.3667710  0.2397510  0.7375920    0.00000       Uiso       1.00
       N15          N  0.4212520  0.2632920  0.8417320    0.00000       Uiso       1.00
       H16          H  0.4313020  0.1335420  0.8571619    0.00000       Uiso       1.00
       H17          H  0.3590510  0.5150600  0.0248000    0.00000       Uiso       1.00
       H18          H  0.5281210  0.6005410  0.2050310    0.00000       Uiso       1.00
       H19          H  0.5623310  0.5665010  0.1368700    0.00000       Uiso       1.00
       H20          H  0.5241110  0.4365900  0.0428100    0.00000       Uiso       1.00
       C21          C  0.4413460  0.5601760  0.1192900    0.00000       Uiso       1.00
       C22          C  0.3680760  0.5692260  0.1355500    0.00000       Uiso       1.00
       C23          C  0.3645460  0.5957560  0.1897800    0.00000       Uiso       1.00
       C24          C  0.4524560  0.6118960  0.2255110    0.00000       Uiso       1.00
       C25          C  0.4177760  0.6226760  0.2465310    0.00000       Uiso       1.00
       C26          C  0.3194810  0.5969210  0.1908100    0.00000       Uiso       1.00
       C27          C  0.4764770  0.3542770  0.9494020    0.00000       Uiso       1.00
       C28          C  0.4797370  0.4372070  0.9570830    0.00000       Uiso       1.00
       C29          C  0.4954570  0.4109270  0.9870130    0.00000       Uiso       1.00
       C30          C  0.4245870  0.3481670  0.8507020    0.00000       Uiso       1.00
       C31          C  0.4435170  0.4048170  0.8882420    0.00000       Uiso       1.00
       O32          O  0.3289710  0.5415910  0.0777700    0.00000       Uiso       1.00
       O33          O  0.5021610  0.6291810  0.2624110    0.00000       Uiso       1.00
       N34          N  0.4215610  0.5795210  0.1582700    0.00000       Uiso       1.00
       H35          H  0.2763810  0.5741410  0.1428400    0.00000       Uiso       1.00
       H36          H  0.4902620  0.3342520  0.9752030    0.00000       Uiso       1.00
       H37          H  0.3955120  0.3230920  0.7949721    0.00000       Uiso       1.00
       H38          H  0.4296320  0.4254620  0.8631320    0.00000       Uiso       1.00
       H39          H  0.2313010  0.7741120  0.5875220    0.00000       Uiso       1.00
       C40          C  0.0720560  0.6913460  0.3811710    0.00000       Uiso       1.00
       C41          C  0.9825270  0.6180760  0.2988510    0.00000       Uiso       1.00
       C42          C  0.9247659  0.6145460  0.2687910    0.00000       Uiso       1.00
       C43          C  0.9769470  0.7024560  0.3405610    0.00000       Uiso       1.00
       C44          C  0.9212460  0.6677760  0.2951010    0.00000       Uiso       1.00
       C45          C  0.8786710  0.5694810  0.2225610    0.00000       Uiso       1.00
       C46          C  0.2770760  0.7264770  0.6222020    0.00000       Uiso       1.00
       C47          C  0.2726560  0.7297360  0.5425310    0.00000       Uiso       1.00
       C48          C  0.2584460  0.7454570  0.5845310    0.00000       Uiso       1.00
       C49          C  0.3238860  0.6745860  0.5764210    0.00000       Uiso       1.00
       C50          C  0.3052760  0.6935160  0.5387010    0.00000       Uiso       1.00
       O51          O  0.0012010  0.5789710  0.2873810    0.00000       Uiso       1.00
       O52          O  0.9897520  0.7521611  0.3729810    0.00000       Uiso       1.00
       N53          N  0.0132910  0.6715610  0.3420410    0.00000       Uiso       1.00
       H54          H  0.8835410  0.5263810  0.2022410    0.00000       Uiso       1.00
       H55          H  0.2650620  0.7402620  0.6560120    0.00000       Uiso       1.00
       H56          H  0.3505410  0.6455110  0.5724210    0.00000       Uiso       1.00
       H57          H  0.3165010  0.6796310  0.5041710    0.00000       Uiso       1.00
       H58          H  0.1865910  0.6437810  0.4124810    0.00000       Uiso       1.00
       C59          C  0.3101760  0.6908870  0.6188320    0.00000       Uiso       1.00
       C60          C  0.3192270  0.6836770  0.7011520    0.00000       Uiso       1.00
       C61          C  0.3457570  0.6559770  0.7312120    0.00000       Uiso       1.00
       C62          C  0.3618970  0.6363870  0.6594420    0.00000       Uiso       1.00
       C63          C  0.3726770  0.6261470  0.7049020    0.00000       Uiso       1.00
       C64          C  0.3469220  0.6561120  0.7774420    0.00000       Uiso       1.00
       C65          C  0.1042760  0.6548760  0.3778010    0.00000       Uiso       1.00
       C66          C  0.1872060  0.7301260  0.4574710    0.00000       Uiso       1.00
       C67          C  0.1609260  0.6739160  0.4154710    0.00000       Uiso       1.00
       C68          C  0.0981660  0.7474660  0.4235810    0.00000       Uiso       1.00
       C69          C  0.1548160  0.7665760  0.4613010    0.00000       Uiso       1.00
       O70          O  0.2915920  0.7138220  0.7126220    0.00000       Uiso       1.00
       O71          O  0.3791820  0.6167720  0.6270220    0.00000       Uiso       1.00
       N72          N  0.3295220  0.6712520  0.6579620    0.00000       Uiso       1.00
       H73          H  0.3241420  0.6813020  0.7977620    0.00000       Uiso       1.00
       H74          H  0.0842510  0.6090510  0.3439910    0.00000       Uiso       1.00
       H75          H  0.0730910  0.7781210  0.4275810    0.00000       Uiso       1.00
       H76          H  0.1754610  0.8123310  0.4958310    0.00000       Uiso       1.00
       H77          H  0.3562210  0.7687010  0.5428110    0.00000       Uiso       1.00
       C78          C  0.3091170  0.9279469  0.6192920    0.00000       Uiso       1.00
       C79          C  0.3163260  0.0174760  0.6355520    0.00000       Uiso       1.00
       C80          C  0.3440260  0.0752360  0.6897820    0.00000       Uiso       1.00
       C81          C  0.3636160  0.0230560  0.7255120    0.00000       Uiso       1.00
       C82          C  0.3738560  0.0787560  0.7465320    0.00000       Uiso       1.00
       C83          C  0.3438910  0.1213310  0.6908120    0.00000       Uiso       1.00
       C84          C  0.3451260  0.7229260  0.4494010    0.00000       Uiso       1.00
       C85          C  0.2698760  0.7273460  0.4570810    0.00000       Uiso       1.00
       C86          C  0.3260860  0.7415560  0.4870110    0.00000       Uiso       1.00
       C87          C  0.2525360  0.6761160  0.3507010    0.00000       Uiso       1.00
       C88          C  0.2334260  0.6947260  0.3882410    0.00000       Uiso       1.00
       O89          O  0.2861820  0.9988020  0.5777710    0.00000       Uiso       1.00
       O90          O  0.3832310  0.0102510  0.7624120    0.00000       Uiso       1.00
       N91          N  0.3287520  0.9867120  0.6582720    0.00000       Uiso       1.00
       H92          H  0.3187010  0.1164610  0.6428420    0.00000       Uiso       1.00
       H93          H  0.3909510  0.7349410  0.4752010    0.00000       Uiso       1.00
       H94          H  0.2218810  0.6494610  0.2949710    0.00000       Uiso       1.00
       H95          H  0.1876710  0.6835010  0.3631310    0.00000       Uiso       1.00
       H96          H  0.2258910  0.8134110  0.4571910    0.00000       Uiso       1.00
       C97          C  0.3086560  0.6898260  0.3807110    0.00000       Uiso       1.00
       C98          C  0.3819260  0.6807760  0.3644510    0.00000       Uiso       1.00
       C99          C  0.3854560  0.6542460  0.3102210    0.00000       Uiso       1.00
      C100          C  0.2975460  0.6381060  0.2744910    0.00000       Uiso       1.00
      C101          C  0.3322260  0.6273260  0.2534710    0.00000       Uiso       1.00
      C102          C  0.4305210  0.6530810  0.3091910    0.00000       Uiso       1.00
      C103          C  0.2735260  0.8957270  0.5506010    0.00000       Uiso       1.00
      C104          C  0.2702660  0.8127960  0.5429210    0.00000       Uiso       1.00
      C105          C  0.2545460  0.8390770  0.5129910    0.00000       Uiso       1.00
      C106          C  0.3254170  0.9018370  0.6493020    0.00000       Uiso       1.00
      C107          C  0.3064870  0.8451870  0.6117620    0.00000       Uiso       1.00
      O108          O  0.4210310  0.7084110  0.4222310    0.00000       Uiso       1.00
      O109          O  0.2478410  0.6208210  0.2375910    0.00000       Uiso       1.00
      N110          N  0.3284410  0.6704810  0.3417310    0.00000       Uiso       1.00
      H111          H  0.4736210  0.6758610  0.3571610    0.00000       Uiso       1.00
      H112          H  0.2597410  0.9157520  0.5248010    0.00000       Uiso       1.00
      H113          H  0.3544920  0.9269120  0.7050320    0.00000       Uiso       1.00
      H114          H  0.3203720  0.8245420  0.6368720    0.00000       Uiso       1.00
      H115          H  0.5187020  0.4758920  0.9124820    0.00000       Uiso       1.00
      C116          C  0.6779460  0.5586560  0.1188300    0.00000       Uiso       1.00
      C117          C  0.7674760  0.6319260  0.2011510    0.00000       Uiso       1.00
      C118          C  0.8252360  0.6354560  0.2312110    0.00000       Uiso       1.00
      C119          C  0.7730560  0.5475460  0.1594400    0.00000       Uiso       1.00
      C120          C  0.8287560  0.5822260  0.2049010    0.00000       Uiso       1.00
      C121          C  0.8713310  0.6805210  0.2774410    0.00000       Uiso       1.00
      C122          C  0.4729270  0.5235270  0.8778020    0.00000       Uiso       1.00
      C123          C  0.4773470  0.5202670  0.9574730    0.00000       Uiso       1.00
      C124          C  0.4915570  0.5045470  0.9154720    0.00000       Uiso       1.00
      C125          C  0.4261170  0.5754170  0.9235820    0.00000       Uiso       1.00
      C126          C  0.4447270  0.5564870  0.9613020    0.00000       Uiso       1.00
      O127          O  0.7488010  0.6710310  0.2126210    0.00000       Uiso       1.00
      O128          O  0.7602510  0.4978410  0.1270200    0.00000       Uiso       1.00
      N129          N  0.7367110  0.5784410  0.1579600    0.00000       Uiso       1.00
      H130          H  0.8664620  0.7236210  0.2977610    0.00000       Uiso       1.00
      H131          H  0.4849420  0.5097420  0.8439919    0.00000       Uiso       1.00
      H132          H  0.3994620  0.6044920  0.9275820    0.00000       Uiso       1.00
      H133          H  0.4335020  0.5703720  0.9958330    0.00000       Uiso       1.00
      H134          H  0.5634110  0.6062210  0.0875200    0.00000       Uiso       1.00
      C135          C  0.4398270  0.5591170  0.8811720    0.00000       Uiso       1.00
      C136          C  0.4307770  0.5663270  0.7988520    0.00000       Uiso       1.00
      C137          C  0.4042470  0.5940270  0.7687920    0.00000       Uiso       1.00
      C138          C  0.3881070  0.6136170  0.8405620    0.00000       Uiso       1.00
      C139          C  0.3773270  0.6238570  0.7951020    0.00000       Uiso       1.00
      C140          C  0.4030820  0.5938920  0.7225620    0.00000       Uiso       1.00
      C141          C  0.6457260  0.5951260  0.1222000    0.00000       Uiso       1.00
      C142          C  0.5627960  0.5198750  0.0425300    0.00000       Uiso       1.00
      C143          C  0.5890760  0.5760860  0.0845300    0.00000       Uiso       1.00
      C144          C  0.6518359  0.5025350  0.0764200    0.00000       Uiso       1.00
      C145          C  0.5951860  0.4834250  0.0387000    0.00000       Uiso       1.00
      O146          O  0.4584120  0.5361820  0.7873820    0.00000       Uiso       1.00
      O147          O  0.3708220  0.6332320  0.8729820    0.00000       Uiso       1.00
      N148          N  0.4204820  0.5787520  0.8420420    0.00000       Uiso       1.00
      H149          H  0.4258620  0.5687020  0.7022420    0.00000       Uiso       1.00
      H150          H  0.6657510  0.6409510  0.1560100    0.00000       Uiso       1.00
      H151          H  0.6769110  0.4718800  0.0724200    0.00000       Uiso       1.00
      H152          H  0.5745410  0.4376700  0.0041700    0.00000       Uiso       1.00
      C153          C  0.5000010  0.5000000  0.0000000    0.00000       Uiso       1.00
      C154          C  0.2500010  0.7500010  0.5000010    0.00000       Uiso       1.00
