data_3D-COOH-COF
_audit_creation_date              0000-00-00
_audit_creation_method            'LanYouShi'
_symmetry_space_group_name_H-M    'P1'
_cell_length_a                    30.6819992
_cell_length_b                    30.6819992
_cell_length_c                    7.5430002
_cell_angle_alpha                 90.0000000
_cell_angle_beta                  90.0000000
_cell_angle_gamma                 90.0000000
loop_
_atom_site_label
_atom_site_type_symbol
_atom_site_fract_x
_atom_site_fract_y
_atom_site_fract_z
_atom_site_U_iso_or_equiv
_atom_site_adp_type
_atom_site_occupancy
       xx1          C  0.9887000  0.0386000  0.1281000    0.00000       Uiso       1.00
       xx2          C  0.9506000  0.0351000  0.2340000    0.00000       Uiso       1.00
       xx3          C  0.9393000  0.0689000  0.3550000    0.00000       Uiso       1.00
       xx4          C  0.9662000  0.1062000  0.3700000    0.00000       Uiso       1.00
       xx5          C  0.0043000  0.1097000  0.2640000    0.00000       Uiso       1.00
       xx6          C  0.0156000  0.0759000  0.1430000    0.00000       Uiso       1.00
       xx7          C  0.9568000  0.1392000  0.5060000    0.00000       Uiso       1.00
       xx8          N  0.9316000  0.1350000  0.6480000    0.00000       Uiso       1.00
       xx9          C  0.9257000  0.1682000  0.7880000    0.00000       Uiso       1.00
      xx10          C  0.9490000  0.2078000  0.7740000    0.00000       Uiso       1.00
      xx11          C  0.9434000  0.2406000  0.9060000    0.00000       Uiso       1.00
      xx12          C  0.9145000  0.2337000  0.0526000    0.00000       Uiso       1.00
      xx13          C  0.8913000  0.1940000  0.0660000    0.00000       Uiso       1.00
      xx14          C  0.8969000  0.1613000  0.9340000    0.00000       Uiso       1.00
      xx15          O  0.8686100  0.1276500  0.9608500    0.00000       Uiso       1.00
      xx16          H  0.9311600  0.0080100  0.2278200    0.00000       Uiso       1.00
      xx17          H  0.9119500  0.0658800  0.4316400    0.00000       Uiso       1.00
      xx18          H  0.0263000  0.1336500  0.2882000    0.00000       Uiso       1.00
      xx19          H  0.0447400  0.0790000  0.0790700    0.00000       Uiso       1.00
      xx20          H  0.9740100  0.1667600  0.4859600    0.00000       Uiso       1.00
      xx21          H  0.9711900  0.2142600  0.6789400    0.00000       Uiso       1.00
      xx22          H  0.9614600  0.2682400  0.8988400    0.00000       Uiso       1.00
      xx23          H  0.8711600  0.1889500  0.1719900    0.00000       Uiso       1.00
      xx24          C  0.3643300  0.3248800  0.5491100    0.00000       Uiso       1.00
      xx25          C  0.3868300  0.2950500  0.4280700    0.00000       Uiso       1.00
      xx26          O  0.3330400  0.3103600  0.6376800    0.00000       Uiso       1.00
      xx27          H  0.3714700  0.2989500  0.2987100    0.00000       Uiso       1.00
      xx28          H  0.3806400  0.2616800  0.4711300    0.00000       Uiso       1.00
      xx29          C  0.4364200  0.3033900  0.4086100    0.00000       Uiso       1.00
      xx30          H  0.4507400  0.2790400  0.3212100    0.00000       Uiso       1.00
      xx31          C  0.4607000  0.3021900  0.5744100    0.00000       Uiso       1.00
      xx32          H  0.4418900  0.3354700  0.3503200    0.00000       Uiso       1.00
      xx33          O  0.4459600  0.2927600  0.7236700    0.00000       Uiso       1.00
      xx34          O  0.5020100  0.3149300  0.5740000    0.00000       Uiso       1.00
      xx35          H  0.5168400  0.3144000  0.6874900    0.00000       Uiso       1.00
      xx36          C  0.4887000  0.5386000  0.6281000    0.00000       Uiso       1.00
      xx37          C  0.4506000  0.5350999  0.7340000    0.00000       Uiso       1.00
      xx38          C  0.4393000  0.5689000  0.8550000    0.00000       Uiso       1.00
      xx39          C  0.4662000  0.6062000  0.8700000    0.00000       Uiso       1.00
      xx40          C  0.5043000  0.6097000  0.7640000    0.00000       Uiso       1.00
      xx41          C  0.5156000  0.5759000  0.6430000    0.00000       Uiso       1.00
      xx42          C  0.4568000  0.6392000  0.0060000    0.00000       Uiso       1.00
      xx43          N  0.4316000  0.6350000  0.1480000    0.00000       Uiso       1.00
      xx44          C  0.4257000  0.6682000  0.2880000    0.00000       Uiso       1.00
      xx45          C  0.4490000  0.7078000  0.2740000    0.00000       Uiso       1.00
      xx46          C  0.4434000  0.7406000  0.4060000    0.00000       Uiso       1.00
      xx47          C  0.4145000  0.7337000  0.5526000    0.00000       Uiso       1.00
      xx48          C  0.3913000  0.6940000  0.5660000    0.00000       Uiso       1.00
      xx49          C  0.3969000  0.6613000  0.4340000    0.00000       Uiso       1.00
      xx50          O  0.3686100  0.6276500  0.4608500    0.00000       Uiso       1.00
      xx51          H  0.4311600  0.5080100  0.7278200    0.00000       Uiso       1.00
      xx52          H  0.4119500  0.5658800  0.9316400    0.00000       Uiso       1.00
      xx53          H  0.5263000  0.6336500  0.7882000    0.00000       Uiso       1.00
      xx54          H  0.5447400  0.5790000  0.5790699    0.00000       Uiso       1.00
      xx55          H  0.4740100  0.6667600  0.9859600    0.00000       Uiso       1.00
      xx56          H  0.4711900  0.7142600  0.1789400    0.00000       Uiso       1.00
      xx57          H  0.4614600  0.7682400  0.3988400    0.00000       Uiso       1.00
      xx58          H  0.3711600  0.6889500  0.6719900    0.00000       Uiso       1.00
      xx59          C  0.8643300  0.8248800  0.0491100    0.00000       Uiso       1.00
      xx60          C  0.8868300  0.7950500  0.9280700    0.00000       Uiso       1.00
      xx61          O  0.8330400  0.8103601  0.1376800    0.00000       Uiso       1.00
      xx62          H  0.8714700  0.7989500  0.7987100    0.00000       Uiso       1.00
      xx63          H  0.8806400  0.7616800  0.9711300    0.00000       Uiso       1.00
      xx64          C  0.9364200  0.8033900  0.9086100    0.00000       Uiso       1.00
      xx65          H  0.9507400  0.7790400  0.8212100    0.00000       Uiso       1.00
      xx66          C  0.9607000  0.8021900  0.0744100    0.00000       Uiso       1.00
      xx67          H  0.9418900  0.8354700  0.8503200    0.00000       Uiso       1.00
      xx68          O  0.9459600  0.7927600  0.2236700    0.00000       Uiso       1.00
      xx69          O  0.0020100  0.8149300  0.0740000    0.00000       Uiso       1.00
      xx70          H  0.0168400  0.8144000  0.1874900    0.00000       Uiso       1.00
      xx71          C  0.0113000  0.9614000  0.1281000    0.00000       Uiso       1.00
      xx72          C  0.0494000  0.9649001  0.2340000    0.00000       Uiso       1.00
      xx73          C  0.0607000  0.9311000  0.3550000    0.00000       Uiso       1.00
      xx74          C  0.0338000  0.8938000  0.3700000    0.00000       Uiso       1.00
      xx75          C  0.9957000  0.8903000  0.2640000    0.00000       Uiso       1.00
      xx76          C  0.9844000  0.9241000  0.1430000    0.00000       Uiso       1.00
      xx77          C  0.0432000  0.8608000  0.5060000    0.00000       Uiso       1.00
      xx78          N  0.0684000  0.8650000  0.6480000    0.00000       Uiso       1.00
      xx79          C  0.0743000  0.8318000  0.7880000    0.00000       Uiso       1.00
      xx80          C  0.0510000  0.7922000  0.7740000    0.00000       Uiso       1.00
      xx81          C  0.0566000  0.7594000  0.9060000    0.00000       Uiso       1.00
      xx82          C  0.0855000  0.7663000  0.0526000    0.00000       Uiso       1.00
      xx83          C  0.1087000  0.8060000  0.0660000    0.00000       Uiso       1.00
      xx84          C  0.1031000  0.8387000  0.9340000    0.00000       Uiso       1.00
      xx85          O  0.1313900  0.8723500  0.9608500    0.00000       Uiso       1.00
      xx86          H  0.0688400  0.9919900  0.2278200    0.00000       Uiso       1.00
      xx87          H  0.0880500  0.9341200  0.4316400    0.00000       Uiso       1.00
      xx88          H  0.9737000  0.8663500  0.2882000    0.00000       Uiso       1.00
      xx89          H  0.9552600  0.9210000  0.0790700    0.00000       Uiso       1.00
      xx90          H  0.0259900  0.8332400  0.4859600    0.00000       Uiso       1.00
      xx91          H  0.0288100  0.7857400  0.6789400    0.00000       Uiso       1.00
      xx92          H  0.0385400  0.7317600  0.8988400    0.00000       Uiso       1.00
      xx93          H  0.1288400  0.8110500  0.1719900    0.00000       Uiso       1.00
      xx94          C  0.6356700  0.6751200  0.5491100    0.00000       Uiso       1.00
      xx95          C  0.6131700  0.7049500  0.4280700    0.00000       Uiso       1.00
      xx96          O  0.6669600  0.6896399  0.6376800    0.00000       Uiso       1.00
      xx97          H  0.6285300  0.7010500  0.2987100    0.00000       Uiso       1.00
      xx98          H  0.6193600  0.7383200  0.4711300    0.00000       Uiso       1.00
      xx99          C  0.5635800  0.6966100  0.4086100    0.00000       Uiso       1.00
     xx100          H  0.5492600  0.7209600  0.3212100    0.00000       Uiso       1.00
     xx101          C  0.5393000  0.6978100  0.5744100    0.00000       Uiso       1.00
     xx102          H  0.5581100  0.6645300  0.3503200    0.00000       Uiso       1.00
     xx103          O  0.5540400  0.7072400  0.7236700    0.00000       Uiso       1.00
     xx104          O  0.4979900  0.6850700  0.5740000    0.00000       Uiso       1.00
     xx105          H  0.4831600  0.6856000  0.6874900    0.00000       Uiso       1.00
     xx106          C  0.5113000  0.4614000  0.6281000    0.00000       Uiso       1.00
     xx107          C  0.5494000  0.4649000  0.7340000    0.00000       Uiso       1.00
     xx108          C  0.5607000  0.4311000  0.8550000    0.00000       Uiso       1.00
     xx109          C  0.5338000  0.3938000  0.8700000    0.00000       Uiso       1.00
     xx110          C  0.4957000  0.3903000  0.7640000    0.00000       Uiso       1.00
     xx111          C  0.4844000  0.4241000  0.6430000    0.00000       Uiso       1.00
     xx112          C  0.5432000  0.3608000  0.0060000    0.00000       Uiso       1.00
     xx113          N  0.5684000  0.3650000  0.1480000    0.00000       Uiso       1.00
     xx114          C  0.5743000  0.3318000  0.2880000    0.00000       Uiso       1.00
     xx115          C  0.5510000  0.2922000  0.2740000    0.00000       Uiso       1.00
     xx116          C  0.5566000  0.2594000  0.4060000    0.00000       Uiso       1.00
     xx117          C  0.5855000  0.2663000  0.5526000    0.00000       Uiso       1.00
     xx118          C  0.6087000  0.3060000  0.5660000    0.00000       Uiso       1.00
     xx119          C  0.6031000  0.3387000  0.4340000    0.00000       Uiso       1.00
     xx120          O  0.6313900  0.3723500  0.4608500    0.00000       Uiso       1.00
     xx121          H  0.5688400  0.4919900  0.7278200    0.00000       Uiso       1.00
     xx122          H  0.5880500  0.4341200  0.9316400    0.00000       Uiso       1.00
     xx123          H  0.4737000  0.3663500  0.7882000    0.00000       Uiso       1.00
     xx124          H  0.4552600  0.4210000  0.5790699    0.00000       Uiso       1.00
     xx125          H  0.5259900  0.3332400  0.9859600    0.00000       Uiso       1.00
     xx126          H  0.5288100  0.2857400  0.1789400    0.00000       Uiso       1.00
     xx127          H  0.5385400  0.2317600  0.3988400    0.00000       Uiso       1.00
     xx128          H  0.6288400  0.3110500  0.6719900    0.00000       Uiso       1.00
     xx129          C  0.1356700  0.1751200  0.0491100    0.00000       Uiso       1.00
     xx130          C  0.1131700  0.2049500  0.9280700    0.00000       Uiso       1.00
     xx131          O  0.1669600  0.1896400  0.1376800    0.00000       Uiso       1.00
     xx132          H  0.1285300  0.2010500  0.7987100    0.00000       Uiso       1.00
     xx133          H  0.1193600  0.2383200  0.9711300    0.00000       Uiso       1.00
     xx134          C  0.0635800  0.1966100  0.9086100    0.00000       Uiso       1.00
     xx135          H  0.0492600  0.2209600  0.8212100    0.00000       Uiso       1.00
     xx136          C  0.0393000  0.1978100  0.0744100    0.00000       Uiso       1.00
     xx137          H  0.0581100  0.1645300  0.8503200    0.00000       Uiso       1.00
     xx138          O  0.0540400  0.2072400  0.2236700    0.00000       Uiso       1.00
     xx139          O  0.9979900  0.1850700  0.0740000    0.00000       Uiso       1.00
     xx140          H  0.9831600  0.1856000  0.1874900    0.00000       Uiso       1.00
     xx141          C  0.0386000  0.0113000  0.8719000    0.00000       Uiso       1.00
     xx142          C  0.0351000  0.0494000  0.7660000    0.00000       Uiso       1.00
     xx143          C  0.0689000  0.0607000  0.6450000    0.00000       Uiso       1.00
     xx144          C  0.1062000  0.0338000  0.6300000    0.00000       Uiso       1.00
     xx145          C  0.1097000  0.9957000  0.7360000    0.00000       Uiso       1.00
     xx146          C  0.0759000  0.9844000  0.8570000    0.00000       Uiso       1.00
     xx147          C  0.1392000  0.0432000  0.4940000    0.00000       Uiso       1.00
     xx148          N  0.1350000  0.0684000  0.3520000    0.00000       Uiso       1.00
     xx149          C  0.1682000  0.0743000  0.2120000    0.00000       Uiso       1.00
     xx150          C  0.2078000  0.0510000  0.2260000    0.00000       Uiso       1.00
     xx151          C  0.2406000  0.0566000  0.0940000    0.00000       Uiso       1.00
     xx152          C  0.2337000  0.0855000  0.9474000    0.00000       Uiso       1.00
     xx153          C  0.1940000  0.1087000  0.9340000    0.00000       Uiso       1.00
     xx154          C  0.1613000  0.1031000  0.0660000    0.00000       Uiso       1.00
     xx155          O  0.1276500  0.1313900  0.0391500    0.00000       Uiso       1.00
     xx156          H  0.0080100  0.0688400  0.7721800    0.00000       Uiso       1.00
     xx157          H  0.0658800  0.0880500  0.5683600    0.00000       Uiso       1.00
     xx158          H  0.1336500  0.9737000  0.7118000    0.00000       Uiso       1.00
     xx159          H  0.0790000  0.9552600  0.9209301    0.00000       Uiso       1.00
     xx160          H  0.1667600  0.0259900  0.5140400    0.00000       Uiso       1.00
     xx161          H  0.2142600  0.0288100  0.3210600    0.00000       Uiso       1.00
     xx162          H  0.2682400  0.0385400  0.1011600    0.00000       Uiso       1.00
     xx163          H  0.1889500  0.1288400  0.8280100    0.00000       Uiso       1.00
     xx164          C  0.3248800  0.6356700  0.4508900    0.00000       Uiso       1.00
     xx165          C  0.2950500  0.6131700  0.5719300    0.00000       Uiso       1.00
     xx166          O  0.3103600  0.6669600  0.3623200    0.00000       Uiso       1.00
     xx167          H  0.2989500  0.6285300  0.7012900    0.00000       Uiso       1.00
     xx168          H  0.2616800  0.6193600  0.5288700    0.00000       Uiso       1.00
     xx169          C  0.3033900  0.5635800  0.5913900    0.00000       Uiso       1.00
     xx170          H  0.2790400  0.5492600  0.6787900    0.00000       Uiso       1.00
     xx171          C  0.3021900  0.5393000  0.4255900    0.00000       Uiso       1.00
     xx172          H  0.3354700  0.5581100  0.6496800    0.00000       Uiso       1.00
     xx173          O  0.2927600  0.5540400  0.2763300    0.00000       Uiso       1.00
     xx174          O  0.3149300  0.4979900  0.4260000    0.00000       Uiso       1.00
     xx175          H  0.3144000  0.4831600  0.3125100    0.00000       Uiso       1.00
     xx176          C  0.5386000  0.5113000  0.3719000    0.00000       Uiso       1.00
     xx177          C  0.5350999  0.5494000  0.2660000    0.00000       Uiso       1.00
     xx178          C  0.5689000  0.5607000  0.1450000    0.00000       Uiso       1.00
     xx179          C  0.6062000  0.5338000  0.1300000    0.00000       Uiso       1.00
     xx180          C  0.6097000  0.4957000  0.2360000    0.00000       Uiso       1.00
     xx181          C  0.5759000  0.4844000  0.3570000    0.00000       Uiso       1.00
     xx182          C  0.6392000  0.5432000  0.9940000    0.00000       Uiso       1.00
     xx183          N  0.6350000  0.5684000  0.8520000    0.00000       Uiso       1.00
     xx184          C  0.6682000  0.5743000  0.7120000    0.00000       Uiso       1.00
     xx185          C  0.7078000  0.5510000  0.7260000    0.00000       Uiso       1.00
     xx186          C  0.7406000  0.5566000  0.5940000    0.00000       Uiso       1.00
     xx187          C  0.7337000  0.5855000  0.4474000    0.00000       Uiso       1.00
     xx188          C  0.6940000  0.6087000  0.4340000    0.00000       Uiso       1.00
     xx189          C  0.6613000  0.6031000  0.5660000    0.00000       Uiso       1.00
     xx190          O  0.6276500  0.6313900  0.5391500    0.00000       Uiso       1.00
     xx191          H  0.5080100  0.5688400  0.2721800    0.00000       Uiso       1.00
     xx192          H  0.5658800  0.5880500  0.0683600    0.00000       Uiso       1.00
     xx193          H  0.6336500  0.4737000  0.2118000    0.00000       Uiso       1.00
     xx194          H  0.5790000  0.4552600  0.4209300    0.00000       Uiso       1.00
     xx195          H  0.6667600  0.5259900  0.0140400    0.00000       Uiso       1.00
     xx196          H  0.7142600  0.5288100  0.8210600    0.00000       Uiso       1.00
     xx197          H  0.7682400  0.5385400  0.6011600    0.00000       Uiso       1.00
     xx198          H  0.6889500  0.6288400  0.3280100    0.00000       Uiso       1.00
     xx199          C  0.8248800  0.1356700  0.9508900    0.00000       Uiso       1.00
     xx200          C  0.7950500  0.1131700  0.0719300    0.00000       Uiso       1.00
     xx201          O  0.8103601  0.1669600  0.8623200    0.00000       Uiso       1.00
     xx202          H  0.7989500  0.1285300  0.2012900    0.00000       Uiso       1.00
     xx203          H  0.7616800  0.1193600  0.0288700    0.00000       Uiso       1.00
     xx204          C  0.8033900  0.0635800  0.0913900    0.00000       Uiso       1.00
     xx205          H  0.7790400  0.0492600  0.1787900    0.00000       Uiso       1.00
     xx206          C  0.8021900  0.0393000  0.9255900    0.00000       Uiso       1.00
     xx207          H  0.8354700  0.0581100  0.1496800    0.00000       Uiso       1.00
     xx208          O  0.7927600  0.0540400  0.7763300    0.00000       Uiso       1.00
     xx209          O  0.8149300  0.9979900  0.9260000    0.00000       Uiso       1.00
     xx210          H  0.8144000  0.9831600  0.8125100    0.00000       Uiso       1.00
     xx211          C  0.9614000  0.9887000  0.8719000    0.00000       Uiso       1.00
     xx212          C  0.9649001  0.9506000  0.7660000    0.00000       Uiso       1.00
     xx213          C  0.9311000  0.9393000  0.6450000    0.00000       Uiso       1.00
     xx214          C  0.8938000  0.9662000  0.6300000    0.00000       Uiso       1.00
     xx215          C  0.8903000  0.0043000  0.7360000    0.00000       Uiso       1.00
     xx216          C  0.9241000  0.0156000  0.8570000    0.00000       Uiso       1.00
     xx217          C  0.8608000  0.9568000  0.4940000    0.00000       Uiso       1.00
     xx218          N  0.8650000  0.9316000  0.3520000    0.00000       Uiso       1.00
     xx219          C  0.8318000  0.9257000  0.2120000    0.00000       Uiso       1.00
     xx220          C  0.7922000  0.9490000  0.2260000    0.00000       Uiso       1.00
     xx221          C  0.7594000  0.9434000  0.0940000    0.00000       Uiso       1.00
     xx222          C  0.7663000  0.9145000  0.9474000    0.00000       Uiso       1.00
     xx223          C  0.8060000  0.8913000  0.9340000    0.00000       Uiso       1.00
     xx224          C  0.8387000  0.8969000  0.0660000    0.00000       Uiso       1.00
     xx225          O  0.8723500  0.8686100  0.0391500    0.00000       Uiso       1.00
     xx226          H  0.9919900  0.9311600  0.7721800    0.00000       Uiso       1.00
     xx227          H  0.9341200  0.9119500  0.5683600    0.00000       Uiso       1.00
     xx228          H  0.8663500  0.0263000  0.7118000    0.00000       Uiso       1.00
     xx229          H  0.9210000  0.0447400  0.9209301    0.00000       Uiso       1.00
     xx230          H  0.8332400  0.9740100  0.5140400    0.00000       Uiso       1.00
     xx231          H  0.7857400  0.9711900  0.3210600    0.00000       Uiso       1.00
     xx232          H  0.7317600  0.9614600  0.1011600    0.00000       Uiso       1.00
     xx233          H  0.8110500  0.8711600  0.8280100    0.00000       Uiso       1.00
     xx234          C  0.6751200  0.3643300  0.4508900    0.00000       Uiso       1.00
     xx235          C  0.7049500  0.3868300  0.5719300    0.00000       Uiso       1.00
     xx236          O  0.6896399  0.3330400  0.3623200    0.00000       Uiso       1.00
     xx237          H  0.7010500  0.3714700  0.7012900    0.00000       Uiso       1.00
     xx238          H  0.7383200  0.3806400  0.5288700    0.00000       Uiso       1.00
     xx239          C  0.6966100  0.4364200  0.5913900    0.00000       Uiso       1.00
     xx240          H  0.7209600  0.4507400  0.6787900    0.00000       Uiso       1.00
     xx241          C  0.6978100  0.4607000  0.4255900    0.00000       Uiso       1.00
     xx242          H  0.6645300  0.4418900  0.6496800    0.00000       Uiso       1.00
     xx243          O  0.7072400  0.4459600  0.2763300    0.00000       Uiso       1.00
     xx244          O  0.6850700  0.5020100  0.4260000    0.00000       Uiso       1.00
     xx245          H  0.6856000  0.5168400  0.3125100    0.00000       Uiso       1.00
     xx246          C  0.4614000  0.4887000  0.3719000    0.00000       Uiso       1.00
     xx247          C  0.4649000  0.4506000  0.2660000    0.00000       Uiso       1.00
     xx248          C  0.4311000  0.4393000  0.1450000    0.00000       Uiso       1.00
     xx249          C  0.3938000  0.4662000  0.1300000    0.00000       Uiso       1.00
     xx250          C  0.3903000  0.5043000  0.2360000    0.00000       Uiso       1.00
     xx251          C  0.4241000  0.5156000  0.3570000    0.00000       Uiso       1.00
     xx252          C  0.3608000  0.4568000  0.9940000    0.00000       Uiso       1.00
     xx253          N  0.3650000  0.4316000  0.8520000    0.00000       Uiso       1.00
     xx254          C  0.3318000  0.4257000  0.7120000    0.00000       Uiso       1.00
     xx255          C  0.2922000  0.4490000  0.7260000    0.00000       Uiso       1.00
     xx256          C  0.2594000  0.4434000  0.5940000    0.00000       Uiso       1.00
     xx257          C  0.2663000  0.4145000  0.4474000    0.00000       Uiso       1.00
     xx258          C  0.3060000  0.3913000  0.4340000    0.00000       Uiso       1.00
     xx259          C  0.3387000  0.3969000  0.5660000    0.00000       Uiso       1.00
     xx260          O  0.3723500  0.3686100  0.5391500    0.00000       Uiso       1.00
     xx261          H  0.4919900  0.4311600  0.2721800    0.00000       Uiso       1.00
     xx262          H  0.4341200  0.4119500  0.0683600    0.00000       Uiso       1.00
     xx263          H  0.3663500  0.5263000  0.2118000    0.00000       Uiso       1.00
     xx264          H  0.4210000  0.5447400  0.4209300    0.00000       Uiso       1.00
     xx265          H  0.3332400  0.4740100  0.0140400    0.00000       Uiso       1.00
     xx266          H  0.2857400  0.4711900  0.8210600    0.00000       Uiso       1.00
     xx267          H  0.2317600  0.4614600  0.6011600    0.00000       Uiso       1.00
     xx268          H  0.3110500  0.3711600  0.3280100    0.00000       Uiso       1.00
     xx269          C  0.1751200  0.8643300  0.9508900    0.00000       Uiso       1.00
     xx270          C  0.2049500  0.8868300  0.0719300    0.00000       Uiso       1.00
     xx271          O  0.1896400  0.8330400  0.8623200    0.00000       Uiso       1.00
     xx272          H  0.2010500  0.8714700  0.2012900    0.00000       Uiso       1.00
     xx273          H  0.2383200  0.8806400  0.0288700    0.00000       Uiso       1.00
     xx274          C  0.1966100  0.9364200  0.0913900    0.00000       Uiso       1.00
     xx275          H  0.2209600  0.9507400  0.1787900    0.00000       Uiso       1.00
     xx276          C  0.1978100  0.9607000  0.9255900    0.00000       Uiso       1.00
     xx277          H  0.1645300  0.9418900  0.1496800    0.00000       Uiso       1.00
     xx278          O  0.2072400  0.9459600  0.7763300    0.00000       Uiso       1.00
     xx279          O  0.1850700  0.0020100  0.9260000    0.00000       Uiso       1.00
     xx280          H  0.1856000  0.0168400  0.8125100    0.00000       Uiso       1.00
     xx281          C  0.5113000  0.0386000  0.6219000    0.00000       Uiso       1.00
     xx282          C  0.5494000  0.0351000  0.5160000    0.00000       Uiso       1.00
     xx283          C  0.5607000  0.0689000  0.3950000    0.00000       Uiso       1.00
     xx284          C  0.5338000  0.1062000  0.3800000    0.00000       Uiso       1.00
     xx285          C  0.4957000  0.1097000  0.4860000    0.00000       Uiso       1.00
     xx286          C  0.4844000  0.0759000  0.6070000    0.00000       Uiso       1.00
     xx287          C  0.5432000  0.1392000  0.2440000    0.00000       Uiso       1.00
     xx288          N  0.5684000  0.1350000  0.1020000    0.00000       Uiso       1.00
     xx289          C  0.5743000  0.1682000  0.9620000    0.00000       Uiso       1.00
     xx290          C  0.5510000  0.2078000  0.9760000    0.00000       Uiso       1.00
     xx291          C  0.5566000  0.2406000  0.8440000    0.00000       Uiso       1.00
     xx292          C  0.5855000  0.2337000  0.6974000    0.00000       Uiso       1.00
     xx293          C  0.6087000  0.1940000  0.6840000    0.00000       Uiso       1.00
     xx294          C  0.6031000  0.1613000  0.8160000    0.00000       Uiso       1.00
     xx295          O  0.6313900  0.1276500  0.7891500    0.00000       Uiso       1.00
     xx296          H  0.5688400  0.0080100  0.5221800    0.00000       Uiso       1.00
     xx297          H  0.5880500  0.0658800  0.3183600    0.00000       Uiso       1.00
     xx298          H  0.4737000  0.1336500  0.4618000    0.00000       Uiso       1.00
     xx299          H  0.4552600  0.0790000  0.6709300    0.00000       Uiso       1.00
     xx300          H  0.5259900  0.1667600  0.2640400    0.00000       Uiso       1.00
     xx301          H  0.5288100  0.2142600  0.0710600    0.00000       Uiso       1.00
     xx302          H  0.5385400  0.2682400  0.8511600    0.00000       Uiso       1.00
     xx303          H  0.6288400  0.1889500  0.5780100    0.00000       Uiso       1.00
     xx304          C  0.1356700  0.3248800  0.2008900    0.00000       Uiso       1.00
     xx305          C  0.1131700  0.2950500  0.3219300    0.00000       Uiso       1.00
     xx306          O  0.1669600  0.3103600  0.1123200    0.00000       Uiso       1.00
     xx307          H  0.1285300  0.2989500  0.4512900    0.00000       Uiso       1.00
     xx308          H  0.1193600  0.2616800  0.2788700    0.00000       Uiso       1.00
     xx309          C  0.0635800  0.3033900  0.3413900    0.00000       Uiso       1.00
     xx310          H  0.0492600  0.2790400  0.4287900    0.00000       Uiso       1.00
     xx311          C  0.0393000  0.3021900  0.1755900    0.00000       Uiso       1.00
     xx312          H  0.0581100  0.3354700  0.3996800    0.00000       Uiso       1.00
     xx313          O  0.0540400  0.2927600  0.0263300    0.00000       Uiso       1.00
     xx314          O  0.9979900  0.3149300  0.1760000    0.00000       Uiso       1.00
     xx315          H  0.9831600  0.3144000  0.0625100    0.00000       Uiso       1.00
     xx316          C  0.0113000  0.5386000  0.1219000    0.00000       Uiso       1.00
     xx317          C  0.0494000  0.5350999  0.0160000    0.00000       Uiso       1.00
     xx318          C  0.0607000  0.5689000  0.8950000    0.00000       Uiso       1.00
     xx319          C  0.0338000  0.6062000  0.8800000    0.00000       Uiso       1.00
     xx320          C  0.9957000  0.6097000  0.9860000    0.00000       Uiso       1.00
     xx321          C  0.9844000  0.5759000  0.1070000    0.00000       Uiso       1.00
     xx322          C  0.0432000  0.6392000  0.7440000    0.00000       Uiso       1.00
     xx323          N  0.0684000  0.6350000  0.6020000    0.00000       Uiso       1.00
     xx324          C  0.0743000  0.6682000  0.4620000    0.00000       Uiso       1.00
     xx325          C  0.0510000  0.7078000  0.4760000    0.00000       Uiso       1.00
     xx326          C  0.0566000  0.7406000  0.3440000    0.00000       Uiso       1.00
     xx327          C  0.0855000  0.7337000  0.1974000    0.00000       Uiso       1.00
     xx328          C  0.1087000  0.6940000  0.1840000    0.00000       Uiso       1.00
     xx329          C  0.1031000  0.6613000  0.3160000    0.00000       Uiso       1.00
     xx330          O  0.1313900  0.6276500  0.2891500    0.00000       Uiso       1.00
     xx331          H  0.0688400  0.5080100  0.0221800    0.00000       Uiso       1.00
     xx332          H  0.0880500  0.5658800  0.8183600    0.00000       Uiso       1.00
     xx333          H  0.9737000  0.6336500  0.9618000    0.00000       Uiso       1.00
     xx334          H  0.9552600  0.5790000  0.1709300    0.00000       Uiso       1.00
     xx335          H  0.0259900  0.6667600  0.7640400    0.00000       Uiso       1.00
     xx336          H  0.0288100  0.7142600  0.5710600    0.00000       Uiso       1.00
     xx337          H  0.0385400  0.7682400  0.3511600    0.00000       Uiso       1.00
     xx338          H  0.1288400  0.6889500  0.0780100    0.00000       Uiso       1.00
     xx339          C  0.6356700  0.8248800  0.7008900    0.00000       Uiso       1.00
     xx340          C  0.6131700  0.7950500  0.8219300    0.00000       Uiso       1.00
     xx341          O  0.6669600  0.8103601  0.6123200    0.00000       Uiso       1.00
     xx342          H  0.6285300  0.7989500  0.9512900    0.00000       Uiso       1.00
     xx343          H  0.6193600  0.7616800  0.7788700    0.00000       Uiso       1.00
     xx344          C  0.5635800  0.8033900  0.8413900    0.00000       Uiso       1.00
     xx345          H  0.5492600  0.7790400  0.9287900    0.00000       Uiso       1.00
     xx346          C  0.5393000  0.8021900  0.6755900    0.00000       Uiso       1.00
     xx347          H  0.5581100  0.8354700  0.8996800    0.00000       Uiso       1.00
     xx348          O  0.5540400  0.7927600  0.5263300    0.00000       Uiso       1.00
     xx349          O  0.4979900  0.8149300  0.6760000    0.00000       Uiso       1.00
     xx350          H  0.4831600  0.8144000  0.5625101    0.00000       Uiso       1.00
     xx351          C  0.4887000  0.9614000  0.6219000    0.00000       Uiso       1.00
     xx352          C  0.4506000  0.9649001  0.5160000    0.00000       Uiso       1.00
     xx353          C  0.4393000  0.9311000  0.3950000    0.00000       Uiso       1.00
     xx354          C  0.4662000  0.8938000  0.3800000    0.00000       Uiso       1.00
     xx355          C  0.5043000  0.8903000  0.4860000    0.00000       Uiso       1.00
     xx356          C  0.5156000  0.9241000  0.6070000    0.00000       Uiso       1.00
     xx357          C  0.4568000  0.8608000  0.2440000    0.00000       Uiso       1.00
     xx358          N  0.4316000  0.8650000  0.1020000    0.00000       Uiso       1.00
     xx359          C  0.4257000  0.8318000  0.9620000    0.00000       Uiso       1.00
     xx360          C  0.4490000  0.7922000  0.9760000    0.00000       Uiso       1.00
     xx361          C  0.4434000  0.7594000  0.8440000    0.00000       Uiso       1.00
     xx362          C  0.4145000  0.7663000  0.6974000    0.00000       Uiso       1.00
     xx363          C  0.3913000  0.8060000  0.6840000    0.00000       Uiso       1.00
     xx364          C  0.3969000  0.8387000  0.8160000    0.00000       Uiso       1.00
     xx365          O  0.3686100  0.8723500  0.7891500    0.00000       Uiso       1.00
     xx366          H  0.4311600  0.9919900  0.5221800    0.00000       Uiso       1.00
     xx367          H  0.4119500  0.9341200  0.3183600    0.00000       Uiso       1.00
     xx368          H  0.5263000  0.8663500  0.4618000    0.00000       Uiso       1.00
     xx369          H  0.5447400  0.9210000  0.6709300    0.00000       Uiso       1.00
     xx370          H  0.4740100  0.8332400  0.2640400    0.00000       Uiso       1.00
     xx371          H  0.4711900  0.7857400  0.0710600    0.00000       Uiso       1.00
     xx372          H  0.4614600  0.7317600  0.8511600    0.00000       Uiso       1.00
     xx373          H  0.3711600  0.8110500  0.5780100    0.00000       Uiso       1.00
     xx374          C  0.8643300  0.6751200  0.2008900    0.00000       Uiso       1.00
     xx375          C  0.8868300  0.7049500  0.3219300    0.00000       Uiso       1.00
     xx376          O  0.8330400  0.6896399  0.1123200    0.00000       Uiso       1.00
     xx377          H  0.8714700  0.7010500  0.4512900    0.00000       Uiso       1.00
     xx378          H  0.8806400  0.7383200  0.2788700    0.00000       Uiso       1.00
     xx379          C  0.9364200  0.6966100  0.3413900    0.00000       Uiso       1.00
     xx380          H  0.9507400  0.7209600  0.4287900    0.00000       Uiso       1.00
     xx381          C  0.9607000  0.6978100  0.1755900    0.00000       Uiso       1.00
     xx382          H  0.9418900  0.6645300  0.3996800    0.00000       Uiso       1.00
     xx383          O  0.9459600  0.7072400  0.0263300    0.00000       Uiso       1.00
     xx384          O  0.0020100  0.6850700  0.1760000    0.00000       Uiso       1.00
     xx385          H  0.0168400  0.6856000  0.0625100    0.00000       Uiso       1.00
     xx386          C  0.9887000  0.4614000  0.1219000    0.00000       Uiso       1.00
     xx387          C  0.9506000  0.4649000  0.0160000    0.00000       Uiso       1.00
     xx388          C  0.9393000  0.4311000  0.8950000    0.00000       Uiso       1.00
     xx389          C  0.9662000  0.3938000  0.8800000    0.00000       Uiso       1.00
     xx390          C  0.0043000  0.3903000  0.9860000    0.00000       Uiso       1.00
     xx391          C  0.0156000  0.4241000  0.1070000    0.00000       Uiso       1.00
     xx392          C  0.9568000  0.3608000  0.7440000    0.00000       Uiso       1.00
     xx393          N  0.9316000  0.3650000  0.6020000    0.00000       Uiso       1.00
     xx394          C  0.9257000  0.3318000  0.4620000    0.00000       Uiso       1.00
     xx395          C  0.9490000  0.2922000  0.4760000    0.00000       Uiso       1.00
     xx396          C  0.9434000  0.2594000  0.3440000    0.00000       Uiso       1.00
     xx397          C  0.9145000  0.2663000  0.1974000    0.00000       Uiso       1.00
     xx398          C  0.8913000  0.3060000  0.1840000    0.00000       Uiso       1.00
     xx399          C  0.8969000  0.3387000  0.3160000    0.00000       Uiso       1.00
     xx400          O  0.8686100  0.3723500  0.2891500    0.00000       Uiso       1.00
     xx401          H  0.9311600  0.4919900  0.0221800    0.00000       Uiso       1.00
     xx402          H  0.9119500  0.4341200  0.8183600    0.00000       Uiso       1.00
     xx403          H  0.0263000  0.3663500  0.9618000    0.00000       Uiso       1.00
     xx404          H  0.0447400  0.4210000  0.1709300    0.00000       Uiso       1.00
     xx405          H  0.9740100  0.3332400  0.7640400    0.00000       Uiso       1.00
     xx406          H  0.9711900  0.2857400  0.5710600    0.00000       Uiso       1.00
     xx407          H  0.9614600  0.2317600  0.3511600    0.00000       Uiso       1.00
     xx408          H  0.8711600  0.3110500  0.0780100    0.00000       Uiso       1.00
     xx409          C  0.3643300  0.1751200  0.7008900    0.00000       Uiso       1.00
     xx410          C  0.3868300  0.2049500  0.8219300    0.00000       Uiso       1.00
     xx411          O  0.3330400  0.1896400  0.6123200    0.00000       Uiso       1.00
     xx412          H  0.3714700  0.2010500  0.9512900    0.00000       Uiso       1.00
     xx413          H  0.3806400  0.2383200  0.7788700    0.00000       Uiso       1.00
     xx414          C  0.4364200  0.1966100  0.8413900    0.00000       Uiso       1.00
     xx415          H  0.4507400  0.2209600  0.9287900    0.00000       Uiso       1.00
     xx416          C  0.4607000  0.1978100  0.6755900    0.00000       Uiso       1.00
     xx417          H  0.4418900  0.1645300  0.8996800    0.00000       Uiso       1.00
     xx418          O  0.4459600  0.2072400  0.5263300    0.00000       Uiso       1.00
     xx419          O  0.5020100  0.1850700  0.6760000    0.00000       Uiso       1.00
     xx420          H  0.5168400  0.1856000  0.5625101    0.00000       Uiso       1.00
     xx421          C  0.4614000  0.0113000  0.8781000    0.00000       Uiso       1.00
     xx422          C  0.4649000  0.0494000  0.9840000    0.00000       Uiso       1.00
     xx423          C  0.4311000  0.0607000  0.1050000    0.00000       Uiso       1.00
     xx424          C  0.3938000  0.0338000  0.1200000    0.00000       Uiso       1.00
     xx425          C  0.3903000  0.9957000  0.0140000    0.00000       Uiso       1.00
     xx426          C  0.4241000  0.9844000  0.8930000    0.00000       Uiso       1.00
     xx427          C  0.3608000  0.0432000  0.2560000    0.00000       Uiso       1.00
     xx428          N  0.3650000  0.0684000  0.3980000    0.00000       Uiso       1.00
     xx429          C  0.3318000  0.0743000  0.5380000    0.00000       Uiso       1.00
     xx430          C  0.2922000  0.0510000  0.5240000    0.00000       Uiso       1.00
     xx431          C  0.2594000  0.0566000  0.6560000    0.00000       Uiso       1.00
     xx432          C  0.2663000  0.0855000  0.8026000    0.00000       Uiso       1.00
     xx433          C  0.3060000  0.1087000  0.8160000    0.00000       Uiso       1.00
     xx434          C  0.3387000  0.1031000  0.6840000    0.00000       Uiso       1.00
     xx435          O  0.3723500  0.1313900  0.7108500    0.00000       Uiso       1.00
     xx436          H  0.4919900  0.0688400  0.9778200    0.00000       Uiso       1.00
     xx437          H  0.4341200  0.0880500  0.1816400    0.00000       Uiso       1.00
     xx438          H  0.3663500  0.9737000  0.0382000    0.00000       Uiso       1.00
     xx439          H  0.4210000  0.9552600  0.8290700    0.00000       Uiso       1.00
     xx440          H  0.3332400  0.0259900  0.2359600    0.00000       Uiso       1.00
     xx441          H  0.2857400  0.0288100  0.4289400    0.00000       Uiso       1.00
     xx442          H  0.2317600  0.0385400  0.6488400    0.00000       Uiso       1.00
     xx443          H  0.3110500  0.1288400  0.9219900    0.00000       Uiso       1.00
     xx444          C  0.1751200  0.6356700  0.2991100    0.00000       Uiso       1.00
     xx445          C  0.2049500  0.6131700  0.1780700    0.00000       Uiso       1.00
     xx446          O  0.1896400  0.6669600  0.3876800    0.00000       Uiso       1.00
     xx447          H  0.2010500  0.6285300  0.0487100    0.00000       Uiso       1.00
     xx448          H  0.2383200  0.6193600  0.2211300    0.00000       Uiso       1.00
     xx449          C  0.1966100  0.5635800  0.1586100    0.00000       Uiso       1.00
     xx450          H  0.2209600  0.5492600  0.0712100    0.00000       Uiso       1.00
     xx451          C  0.1978100  0.5393000  0.3244100    0.00000       Uiso       1.00
     xx452          H  0.1645300  0.5581100  0.1003200    0.00000       Uiso       1.00
     xx453          O  0.2072400  0.5540400  0.4736700    0.00000       Uiso       1.00
     xx454          O  0.1850700  0.4979900  0.3240000    0.00000       Uiso       1.00
     xx455          H  0.1856000  0.4831600  0.4374900    0.00000       Uiso       1.00
     xx456          C  0.9614000  0.5113000  0.3781000    0.00000       Uiso       1.00
     xx457          C  0.9649001  0.5494000  0.4840000    0.00000       Uiso       1.00
     xx458          C  0.9311000  0.5607000  0.6050000    0.00000       Uiso       1.00
     xx459          C  0.8938000  0.5338000  0.6200000    0.00000       Uiso       1.00
     xx460          C  0.8903000  0.4957000  0.5140000    0.00000       Uiso       1.00
     xx461          C  0.9241000  0.4844000  0.3930000    0.00000       Uiso       1.00
     xx462          C  0.8608000  0.5432000  0.7560000    0.00000       Uiso       1.00
     xx463          N  0.8650000  0.5684000  0.8980000    0.00000       Uiso       1.00
     xx464          C  0.8318000  0.5743000  0.0380000    0.00000       Uiso       1.00
     xx465          C  0.7922000  0.5510000  0.0240000    0.00000       Uiso       1.00
     xx466          C  0.7594000  0.5566000  0.1560000    0.00000       Uiso       1.00
     xx467          C  0.7663000  0.5855000  0.3026000    0.00000       Uiso       1.00
     xx468          C  0.8060000  0.6087000  0.3160000    0.00000       Uiso       1.00
     xx469          C  0.8387000  0.6031000  0.1840000    0.00000       Uiso       1.00
     xx470          O  0.8723500  0.6313900  0.2108500    0.00000       Uiso       1.00
     xx471          H  0.9919900  0.5688400  0.4778200    0.00000       Uiso       1.00
     xx472          H  0.9341200  0.5880500  0.6816400    0.00000       Uiso       1.00
     xx473          H  0.8663500  0.4737000  0.5382000    0.00000       Uiso       1.00
     xx474          H  0.9210000  0.4552600  0.3290700    0.00000       Uiso       1.00
     xx475          H  0.8332400  0.5259900  0.7359600    0.00000       Uiso       1.00
     xx476          H  0.7857400  0.5288100  0.9289400    0.00000       Uiso       1.00
     xx477          H  0.7317600  0.5385400  0.1488400    0.00000       Uiso       1.00
     xx478          H  0.8110500  0.6288400  0.4219900    0.00000       Uiso       1.00
     xx479          C  0.6751200  0.1356700  0.7991100    0.00000       Uiso       1.00
     xx480          C  0.7049500  0.1131700  0.6780700    0.00000       Uiso       1.00
     xx481          O  0.6896399  0.1669600  0.8876800    0.00000       Uiso       1.00
     xx482          H  0.7010500  0.1285300  0.5487100    0.00000       Uiso       1.00
     xx483          H  0.7383200  0.1193600  0.7211300    0.00000       Uiso       1.00
     xx484          C  0.6966100  0.0635800  0.6586100    0.00000       Uiso       1.00
     xx485          H  0.7209600  0.0492600  0.5712100    0.00000       Uiso       1.00
     xx486          C  0.6978100  0.0393000  0.8244100    0.00000       Uiso       1.00
     xx487          H  0.6645300  0.0581100  0.6003200    0.00000       Uiso       1.00
     xx488          O  0.7072400  0.0540400  0.9736700    0.00000       Uiso       1.00
     xx489          O  0.6850700  0.9979900  0.8240000    0.00000       Uiso       1.00
     xx490          H  0.6856000  0.9831600  0.9374899    0.00000       Uiso       1.00
     xx491          C  0.5386000  0.9887000  0.8781000    0.00000       Uiso       1.00
     xx492          C  0.5350999  0.9506000  0.9840000    0.00000       Uiso       1.00
     xx493          C  0.5689000  0.9393000  0.1050000    0.00000       Uiso       1.00
     xx494          C  0.6062000  0.9662000  0.1200000    0.00000       Uiso       1.00
     xx495          C  0.6097000  0.0043000  0.0140000    0.00000       Uiso       1.00
     xx496          C  0.5759000  0.0156000  0.8930000    0.00000       Uiso       1.00
     xx497          C  0.6392000  0.9568000  0.2560000    0.00000       Uiso       1.00
     xx498          N  0.6350000  0.9316000  0.3980000    0.00000       Uiso       1.00
     xx499          C  0.6682000  0.9257000  0.5380000    0.00000       Uiso       1.00
     xx500          C  0.7078000  0.9490000  0.5240000    0.00000       Uiso       1.00
     xx501          C  0.7406000  0.9434000  0.6560000    0.00000       Uiso       1.00
     xx502          C  0.7337000  0.9145000  0.8026000    0.00000       Uiso       1.00
     xx503          C  0.6940000  0.8913000  0.8160000    0.00000       Uiso       1.00
     xx504          C  0.6613000  0.8969000  0.6840000    0.00000       Uiso       1.00
     xx505          O  0.6276500  0.8686100  0.7108500    0.00000       Uiso       1.00
     xx506          H  0.5080100  0.9311600  0.9778200    0.00000       Uiso       1.00
     xx507          H  0.5658800  0.9119500  0.1816400    0.00000       Uiso       1.00
     xx508          H  0.6336500  0.0263000  0.0382000    0.00000       Uiso       1.00
     xx509          H  0.5790000  0.0447400  0.8290700    0.00000       Uiso       1.00
     xx510          H  0.6667600  0.9740100  0.2359600    0.00000       Uiso       1.00
     xx511          H  0.7142600  0.9711900  0.4289400    0.00000       Uiso       1.00
     xx512          H  0.7682400  0.9614600  0.6488400    0.00000       Uiso       1.00
     xx513          H  0.6889500  0.8711600  0.9219900    0.00000       Uiso       1.00
     xx514          C  0.8248800  0.3643300  0.2991100    0.00000       Uiso       1.00
     xx515          C  0.7950500  0.3868300  0.1780700    0.00000       Uiso       1.00
     xx516          O  0.8103601  0.3330400  0.3876800    0.00000       Uiso       1.00
     xx517          H  0.7989500  0.3714700  0.0487100    0.00000       Uiso       1.00
     xx518          H  0.7616800  0.3806400  0.2211300    0.00000       Uiso       1.00
     xx519          C  0.8033900  0.4364200  0.1586100    0.00000       Uiso       1.00
     xx520          H  0.7790400  0.4507400  0.0712100    0.00000       Uiso       1.00
     xx521          C  0.8021900  0.4607000  0.3244100    0.00000       Uiso       1.00
     xx522          H  0.8354700  0.4418900  0.1003200    0.00000       Uiso       1.00
     xx523          O  0.7927600  0.4459600  0.4736700    0.00000       Uiso       1.00
     xx524          O  0.8149300  0.5020100  0.3240000    0.00000       Uiso       1.00
     xx525          H  0.8144000  0.5168400  0.4374900    0.00000       Uiso       1.00
     xx526          C  0.0386000  0.4887000  0.3781000    0.00000       Uiso       1.00
     xx527          C  0.0351000  0.4506000  0.4840000    0.00000       Uiso       1.00
     xx528          C  0.0689000  0.4393000  0.6050000    0.00000       Uiso       1.00
     xx529          C  0.1062000  0.4662000  0.6200000    0.00000       Uiso       1.00
     xx530          C  0.1097000  0.5043000  0.5140000    0.00000       Uiso       1.00
     xx531          C  0.0759000  0.5156000  0.3930000    0.00000       Uiso       1.00
     xx532          C  0.1392000  0.4568000  0.7560000    0.00000       Uiso       1.00
     xx533          N  0.1350000  0.4316000  0.8980000    0.00000       Uiso       1.00
     xx534          C  0.1682000  0.4257000  0.0380000    0.00000       Uiso       1.00
     xx535          C  0.2078000  0.4490000  0.0240000    0.00000       Uiso       1.00
     xx536          C  0.2406000  0.4434000  0.1560000    0.00000       Uiso       1.00
     xx537          C  0.2337000  0.4145000  0.3026000    0.00000       Uiso       1.00
     xx538          C  0.1940000  0.3913000  0.3160000    0.00000       Uiso       1.00
     xx539          C  0.1613000  0.3969000  0.1840000    0.00000       Uiso       1.00
     xx540          O  0.1276500  0.3686100  0.2108500    0.00000       Uiso       1.00
     xx541          H  0.0080100  0.4311600  0.4778200    0.00000       Uiso       1.00
     xx542          H  0.0658800  0.4119500  0.6816400    0.00000       Uiso       1.00
     xx543          H  0.1336500  0.5263000  0.5382000    0.00000       Uiso       1.00
     xx544          H  0.0790000  0.5447400  0.3290700    0.00000       Uiso       1.00
     xx545          H  0.1667600  0.4740100  0.7359600    0.00000       Uiso       1.00
     xx546          H  0.2142600  0.4711900  0.9289400    0.00000       Uiso       1.00
     xx547          H  0.2682400  0.4614600  0.1488400    0.00000       Uiso       1.00
     xx548          H  0.1889500  0.3711600  0.4219900    0.00000       Uiso       1.00
     xx549          C  0.3248800  0.8643300  0.7991100    0.00000       Uiso       1.00
     xx550          C  0.2950500  0.8868300  0.6780700    0.00000       Uiso       1.00
     xx551          O  0.3103600  0.8330400  0.8876800    0.00000       Uiso       1.00
     xx552          H  0.2989500  0.8714700  0.5487100    0.00000       Uiso       1.00
     xx553          H  0.2616800  0.8806400  0.7211300    0.00000       Uiso       1.00
     xx554          C  0.3033900  0.9364200  0.6586100    0.00000       Uiso       1.00
     xx555          H  0.2790400  0.9507400  0.5712100    0.00000       Uiso       1.00
     xx556          C  0.3021900  0.9607000  0.8244100    0.00000       Uiso       1.00
     xx557          H  0.3354700  0.9418900  0.6003200    0.00000       Uiso       1.00
     xx558          O  0.2927600  0.9459600  0.9736700    0.00000       Uiso       1.00
     xx559          O  0.3149300  0.0020100  0.8240000    0.00000       Uiso       1.00
     xx560          H  0.3144000  0.0168400  0.9374899    0.00000       Uiso       1.00
     xx561          C  0.0000000  0.0000000  0.0000000    0.00000       Uiso       1.00
     xx562          C  0.5000000  0.5000000  0.5000000    0.00000       Uiso       1.00
     xx563          C  0.5000000  0.0000000  0.7500001    0.00000       Uiso       1.00
     xx564          C  0.0000000  0.5000000  0.2500000    0.00000       Uiso       1.00
