data_PI-COF-5-2P
_audit_creation_date              0000-00-00
_audit_creation_method            'LanYouShi'
_symmetry_space_group_name_H-M    'P1'
_cell_length_a                    20.3899994
_cell_length_b                    20.3899994
_cell_length_c                    23.0900002
_cell_angle_alpha                 90.0000000
_cell_angle_beta                  90.0000000
_cell_angle_gamma                 90.0000000
loop_
_atom_site_label
_atom_site_type_symbol
_atom_site_fract_x
_atom_site_fract_y
_atom_site_fract_z
_atom_site_U_iso_or_equiv
_atom_site_adp_type
_atom_site_occupancy
        C1          C  0.8811699  0.1192900  0.6177700    0.00000       Uiso       1.00
        C2          C  0.7988500  0.1355500  0.6982500    0.00000       Uiso       1.00
        C3          C  0.7687900  0.1897800  0.7294801    0.00000       Uiso       1.00
        C4          C  0.8405601  0.2255100  0.6611600    0.00000       Uiso       1.00
        C5          C  0.7951000  0.2465300  0.7060801    0.00000       Uiso       1.00
        C6          C  0.7225600  0.1908100  0.7744099    0.00000       Uiso       1.00
        C7          C  0.1222000  0.9493999  0.6186500    0.00000       Uiso       1.00
        C8          C  0.0425300  0.9570800  0.5401400    0.00000       Uiso       1.00
        C9          C  0.0845300  0.9870100  0.5806300    0.00000       Uiso       1.00
       C10          C  0.0764200  0.8507001  0.5779500    0.00000       Uiso       1.00
       C11          C  0.0387000  0.8882399  0.5399100    0.00000       Uiso       1.00
       O12          O  0.7873800  0.0777700  0.7072100    0.00000       Uiso       1.00
       O13          O  0.8729800  0.2624100  0.6310700    0.00000       Uiso       1.00
       N14          N  0.8420400  0.1582700  0.6571900    0.00000       Uiso       1.00
       H15          H  0.7022400  0.1428400  0.7923201    0.00000       Uiso       1.00
       H16          H  0.1560100  0.9752000  0.6506900    0.00000       Uiso       1.00
       H17          H  0.0875200  0.0428100  0.5821100    0.00000       Uiso       1.00
       H18          H  0.0724200  0.7949699  0.5763700    0.00000       Uiso       1.00
       H19          H  0.0041700  0.8631300  0.5080400    0.00000       Uiso       1.00
       C20          C  0.1188300  0.8807100  0.6177700    0.00000       Uiso       1.00
       C21          C  0.2011500  0.8644500  0.6982500    0.00000       Uiso       1.00
       C22          C  0.2312100  0.8102200  0.7294801    0.00000       Uiso       1.00
       C23          C  0.1594400  0.7744900  0.6611600    0.00000       Uiso       1.00
       C24          C  0.2049000  0.7534700  0.7060801    0.00000       Uiso       1.00
       C25          C  0.2774400  0.8091900  0.7744099    0.00000       Uiso       1.00
       C26          C  0.8778000  0.0506000  0.6186500    0.00000       Uiso       1.00
       C27          C  0.9574699  0.0429200  0.5401400    0.00000       Uiso       1.00
       C28          C  0.9154700  0.0129900  0.5806300    0.00000       Uiso       1.00
       C29          C  0.9235799  0.1493000  0.5779500    0.00000       Uiso       1.00
       C30          C  0.9613000  0.1117600  0.5399100    0.00000       Uiso       1.00
       O31          O  0.2126200  0.9222300  0.7072100    0.00000       Uiso       1.00
       O32          O  0.1270200  0.7375900  0.6310700    0.00000       Uiso       1.00
       N33          N  0.1579600  0.8417300  0.6571900    0.00000       Uiso       1.00
       H34          H  0.2977600  0.8571600  0.7923201    0.00000       Uiso       1.00
       H35          H  0.8439900  0.0248000  0.6506900    0.00000       Uiso       1.00
       H36          H  0.9124800  0.9571900  0.5821100    0.00000       Uiso       1.00
       H37          H  0.9275799  0.2050300  0.5763700    0.00000       Uiso       1.00
       H38          H  0.9958300  0.1368700  0.5080400    0.00000       Uiso       1.00
       C39          C  0.3807100  0.3811700  0.1177700    0.00000       Uiso       1.00
       C40          C  0.3644500  0.2988500  0.1982500    0.00000       Uiso       1.00
       C41          C  0.3102200  0.2687900  0.2294800    0.00000       Uiso       1.00
       C42          C  0.2744900  0.3405600  0.1611600    0.00000       Uiso       1.00
       C43          C  0.2534700  0.2951000  0.2060800    0.00000       Uiso       1.00
       C44          C  0.3091900  0.2225600  0.2744100    0.00000       Uiso       1.00
       C45          C  0.5506000  0.6222000  0.1186500    0.00000       Uiso       1.00
       C46          C  0.5429200  0.5425300  0.0401400    0.00000       Uiso       1.00
       C47          C  0.5129900  0.5845300  0.0806300    0.00000       Uiso       1.00
       C48          C  0.6493000  0.5764200  0.0779500    0.00000       Uiso       1.00
       C49          C  0.6117600  0.5387000  0.0399100    0.00000       Uiso       1.00
       O50          O  0.4222300  0.2873800  0.2072100    0.00000       Uiso       1.00
       O51          O  0.2375900  0.3729800  0.1310700    0.00000       Uiso       1.00
       N52          N  0.3417300  0.3420400  0.1571900    0.00000       Uiso       1.00
       H53          H  0.3571600  0.2022400  0.2923200    0.00000       Uiso       1.00
       H54          H  0.5248000  0.6560100  0.1506900    0.00000       Uiso       1.00
       H55          H  0.4571900  0.5875200  0.0821100    0.00000       Uiso       1.00
       H56          H  0.7050300  0.5724200  0.0763700    0.00000       Uiso       1.00
       H57          H  0.6368700  0.5041700  0.0080400    0.00000       Uiso       1.00
       C58          C  0.6192900  0.6188300  0.1177700    0.00000       Uiso       1.00
       C59          C  0.6355500  0.7011500  0.1982500    0.00000       Uiso       1.00
       C60          C  0.6897800  0.7312100  0.2294800    0.00000       Uiso       1.00
       C61          C  0.7255100  0.6594400  0.1611600    0.00000       Uiso       1.00
       C62          C  0.7465300  0.7049000  0.2060800    0.00000       Uiso       1.00
       C63          C  0.6908100  0.7774400  0.2744100    0.00000       Uiso       1.00
       C64          C  0.4494000  0.3778000  0.1186500    0.00000       Uiso       1.00
       C65          C  0.4570800  0.4574700  0.0401400    0.00000       Uiso       1.00
       C66          C  0.4870100  0.4154700  0.0806300    0.00000       Uiso       1.00
       C67          C  0.3507000  0.4235800  0.0779500    0.00000       Uiso       1.00
       C68          C  0.3882400  0.4613000  0.0399100    0.00000       Uiso       1.00
       O69          O  0.5777700  0.7126200  0.2072100    0.00000       Uiso       1.00
       O70          O  0.7624100  0.6270200  0.1310700    0.00000       Uiso       1.00
       N71          N  0.6582700  0.6579600  0.1571900    0.00000       Uiso       1.00
       H72          H  0.6428400  0.7977601  0.2923200    0.00000       Uiso       1.00
       H73          H  0.4752000  0.3439900  0.1506900    0.00000       Uiso       1.00
       H74          H  0.5428100  0.4124800  0.0821100    0.00000       Uiso       1.00
       H75          H  0.2949700  0.4275800  0.0763700    0.00000       Uiso       1.00
       H76          H  0.3631300  0.4958300  0.0080400    0.00000       Uiso       1.00
       C77          C  0.6188300  0.3807100  0.8822300    0.00000       Uiso       1.00
       C78          C  0.7011500  0.3644500  0.8017500    0.00000       Uiso       1.00
       C79          C  0.7312100  0.3102200  0.7705199    0.00000       Uiso       1.00
       C80          C  0.6594400  0.2744900  0.8388400    0.00000       Uiso       1.00
       C81          C  0.7049000  0.2534700  0.7939199    0.00000       Uiso       1.00
       C82          C  0.7774400  0.3091900  0.7255901    0.00000       Uiso       1.00
       C83          C  0.3778000  0.5506000  0.8813499    0.00000       Uiso       1.00
       C84          C  0.4574700  0.5429200  0.9598600    0.00000       Uiso       1.00
       C85          C  0.4154700  0.5129900  0.9193699    0.00000       Uiso       1.00
       C86          C  0.4235800  0.6493000  0.9220500    0.00000       Uiso       1.00
       C87          C  0.4613000  0.6117600  0.9600900    0.00000       Uiso       1.00
       O88          O  0.7126200  0.4222300  0.7927900    0.00000       Uiso       1.00
       O89          O  0.6270200  0.2375900  0.8689300    0.00000       Uiso       1.00
       N90          N  0.6579600  0.3417300  0.8428099    0.00000       Uiso       1.00
       H91          H  0.7977601  0.3571600  0.7076799    0.00000       Uiso       1.00
       H92          H  0.3439900  0.5248000  0.8493100    0.00000       Uiso       1.00
       H93          H  0.4124800  0.4571900  0.9178900    0.00000       Uiso       1.00
       H94          H  0.4275800  0.7050300  0.9236300    0.00000       Uiso       1.00
       H95          H  0.4958300  0.6368700  0.9919600    0.00000       Uiso       1.00
       C96          C  0.3811700  0.6192900  0.8822300    0.00000       Uiso       1.00
       C97          C  0.2988500  0.6355500  0.8017500    0.00000       Uiso       1.00
       C98          C  0.2687900  0.6897800  0.7705199    0.00000       Uiso       1.00
       C99          C  0.3405600  0.7255100  0.8388400    0.00000       Uiso       1.00
      C100          C  0.2951000  0.7465300  0.7939199    0.00000       Uiso       1.00
      C101          C  0.2225600  0.6908100  0.7255901    0.00000       Uiso       1.00
      C102          C  0.6222000  0.4494000  0.8813499    0.00000       Uiso       1.00
      C103          C  0.5425300  0.4570800  0.9598600    0.00000       Uiso       1.00
      C104          C  0.5845300  0.4870100  0.9193699    0.00000       Uiso       1.00
      C105          C  0.5764200  0.3507000  0.9220500    0.00000       Uiso       1.00
      C106          C  0.5387000  0.3882400  0.9600900    0.00000       Uiso       1.00
      O107          O  0.2873800  0.5777700  0.7927900    0.00000       Uiso       1.00
      O108          O  0.3729800  0.7624100  0.8689300    0.00000       Uiso       1.00
      N109          N  0.3420400  0.6582700  0.8428099    0.00000       Uiso       1.00
      H110          H  0.2022400  0.6428400  0.7076799    0.00000       Uiso       1.00
      H111          H  0.6560100  0.4752000  0.8493100    0.00000       Uiso       1.00
      H112          H  0.5875200  0.5428100  0.9178900    0.00000       Uiso       1.00
      H113          H  0.5724200  0.2949700  0.9236300    0.00000       Uiso       1.00
      H114          H  0.5041700  0.3631300  0.9919600    0.00000       Uiso       1.00
      C115          C  0.1192900  0.1188300  0.3822300    0.00000       Uiso       1.00
      C116          C  0.1355500  0.2011500  0.3017500    0.00000       Uiso       1.00
      C117          C  0.1897800  0.2312100  0.2705200    0.00000       Uiso       1.00
      C118          C  0.2255100  0.1594400  0.3388400    0.00000       Uiso       1.00
      C119          C  0.2465300  0.2049000  0.2939200    0.00000       Uiso       1.00
      C120          C  0.1908100  0.2774400  0.2255900    0.00000       Uiso       1.00
      C121          C  0.9493999  0.8778000  0.3813500    0.00000       Uiso       1.00
      C122          C  0.9570800  0.9574699  0.4598600    0.00000       Uiso       1.00
      C123          C  0.9870100  0.9154700  0.4193700    0.00000       Uiso       1.00
      C124          C  0.8507001  0.9235799  0.4220500    0.00000       Uiso       1.00
      C125          C  0.8882399  0.9613000  0.4600900    0.00000       Uiso       1.00
      O126          O  0.0777700  0.2126200  0.2927900    0.00000       Uiso       1.00
      O127          O  0.2624100  0.1270200  0.3689300    0.00000       Uiso       1.00
      N128          N  0.1582700  0.1579600  0.3428100    0.00000       Uiso       1.00
      H129          H  0.1428400  0.2977600  0.2076800    0.00000       Uiso       1.00
      H130          H  0.9752000  0.8439900  0.3493100    0.00000       Uiso       1.00
      H131          H  0.0428100  0.9124800  0.4178900    0.00000       Uiso       1.00
      H132          H  0.7949699  0.9275799  0.4236300    0.00000       Uiso       1.00
      H133          H  0.8631300  0.9958300  0.4919600    0.00000       Uiso       1.00
      C134          C  0.8807100  0.8811699  0.3822300    0.00000       Uiso       1.00
      C135          C  0.8644500  0.7988500  0.3017500    0.00000       Uiso       1.00
      C136          C  0.8102200  0.7687900  0.2705200    0.00000       Uiso       1.00
      C137          C  0.7744900  0.8405601  0.3388400    0.00000       Uiso       1.00
      C138          C  0.7534700  0.7951000  0.2939200    0.00000       Uiso       1.00
      C139          C  0.8091900  0.7225600  0.2255900    0.00000       Uiso       1.00
      C140          C  0.0506000  0.1222000  0.3813500    0.00000       Uiso       1.00
      C141          C  0.0429200  0.0425300  0.4598600    0.00000       Uiso       1.00
      C142          C  0.0129900  0.0845300  0.4193700    0.00000       Uiso       1.00
      C143          C  0.1493000  0.0764200  0.4220500    0.00000       Uiso       1.00
      C144          C  0.1117600  0.0387000  0.4600900    0.00000       Uiso       1.00
      O145          O  0.9222300  0.7873800  0.2927900    0.00000       Uiso       1.00
      O146          O  0.7375900  0.8729800  0.3689300    0.00000       Uiso       1.00
      N147          N  0.8417300  0.8420400  0.3428100    0.00000       Uiso       1.00
      H148          H  0.8571600  0.7022400  0.2076800    0.00000       Uiso       1.00
      H149          H  0.0248000  0.1560100  0.3493100    0.00000       Uiso       1.00
      H150          H  0.9571900  0.0875200  0.4178900    0.00000       Uiso       1.00
      H151          H  0.2050300  0.0724200  0.4236300    0.00000       Uiso       1.00
      H152          H  0.1368700  0.0041700  0.4919600    0.00000       Uiso       1.00
      C153          C  0.0000000  0.0000000  0.5000000    0.00000       Uiso       1.00
      C154          C  0.5000000  0.5000000  0.0000000    0.00000       Uiso       1.00
