data_PI-COF-SR
_audit_creation_date              0000-00-00
_audit_creation_method            'LanYouShi'
_symmetry_space_group_name_H-M    'P1'
_cell_length_a                    36.2960014
_cell_length_b                    36.2960014
_cell_length_c                    3.4928000
_cell_angle_alpha                 90.0000000
_cell_angle_beta                  90.0000000
_cell_angle_gamma                 120.0000000
loop_
_atom_site_label
_atom_site_type_symbol
_atom_site_fract_x
_atom_site_fract_y
_atom_site_fract_z
_atom_site_U_iso_or_equiv
_atom_site_adp_type
_atom_site_occupancy
        N1          N  0.4464150  0.5536670  0.5000050    0.00000       Uiso       1.00
        N2          N  0.4463320  0.8927480  0.5000050    0.00000       Uiso       1.00
        N3          N  0.1072520  0.5535840  0.5000050    0.00000       Uiso       1.00
        N4          N  0.5535840  0.4463320  0.5000050    0.00000       Uiso       1.00
        N5          N  0.5536670  0.1072520  0.5000050    0.00000       Uiso       1.00
        N6          N  0.8927480  0.4464150  0.5000050    0.00000       Uiso       1.00
        C7          C  0.5395380  0.5395250  0.5000050    0.00000       Uiso       1.00
        C8          C  0.4604740  0.0000130  0.5000050    0.00000       Uiso       1.00
        C9          C  0.9999860  0.4604610  0.5000050    0.00000       Uiso       1.00
       C10          C  0.4604610  0.4604740  0.5000050    0.00000       Uiso       1.00
       C11          C  0.5395250  0.9999860  0.5000050    0.00000       Uiso       1.00
       C12          C  0.0000130  0.5395380  0.5000050    0.00000       Uiso       1.00
       C13          C  0.5382250  0.4999770  0.5000050    0.00000       Uiso       1.00
       C14          C  0.5000220  0.0382470  0.5000050    0.00000       Uiso       1.00
       C15          C  0.9617520  0.4617750  0.5000050    0.00000       Uiso       1.00
       C16          C  0.4617750  0.5000220  0.5000050    0.00000       Uiso       1.00
       C17          C  0.4999770  0.9617520  0.5000050    0.00000       Uiso       1.00
       C18          C  0.0382470  0.5382250  0.5000050    0.00000       Uiso       1.00
       C19          C  0.4999990  0.4617700  0.5000050    0.00000       Uiso       1.00
       C20          C  0.5382290  0.0382290  0.5000050    0.00000       Uiso       1.00
       C21          C  0.9617700  0.5000000  0.5000050    0.00000       Uiso       1.00
       C22          C  0.5000000  0.5382290  0.5000050    0.00000       Uiso       1.00
       C23          C  0.4617700  0.9617700  0.5000050    0.00000       Uiso       1.00
       C24          C  0.0382290  0.4999990  0.5000050    0.00000       Uiso       1.00
       C25          C  0.3551040  0.7104130  0.5000050    0.00000       Uiso       1.00
       C26          C  0.2895860  0.6446900  0.5000050    0.00000       Uiso       1.00
       C27          C  0.3553090  0.6448950  0.5000050    0.00000       Uiso       1.00
       C28          C  0.6448950  0.2895860  0.5000050    0.00000       Uiso       1.00
       C29          C  0.7104130  0.3553090  0.5000050    0.00000       Uiso       1.00
       C30          C  0.6446900  0.3551040  0.5000050    0.00000       Uiso       1.00
       N31          N  0.3119940  0.6878100  0.5000050    0.00000       Uiso       1.00
       N32          N  0.3121890  0.6241830  0.5000050    0.00000       Uiso       1.00
       N33          N  0.3758160  0.6880050  0.5000050    0.00000       Uiso       1.00
       N34          N  0.6880050  0.3121890  0.5000050    0.00000       Uiso       1.00
       N35          N  0.6878100  0.3758160  0.5000050    0.00000       Uiso       1.00
       N36          N  0.6241830  0.3119940  0.5000050    0.00000       Uiso       1.00
       C37          C  0.3776220  0.7554700  0.5000050    0.00000       Uiso       1.00
       C38          C  0.2445300  0.6221510  0.5000050    0.00000       Uiso       1.00
       C39          C  0.3778480  0.6223770  0.5000050    0.00000       Uiso       1.00
       C40          C  0.6223770  0.2445300  0.5000050    0.00000       Uiso       1.00
       C41          C  0.7554700  0.3778480  0.5000050    0.00000       Uiso       1.00
       C42          C  0.6221510  0.3776220  0.5000050    0.00000       Uiso       1.00
       C43          C  0.3565000  0.5774640  0.5000050    0.00000       Uiso       1.00
       C44          C  0.4225350  0.7790350  0.5000050    0.00000       Uiso       1.00
       C45          C  0.2209650  0.6434990  0.5000050    0.00000       Uiso       1.00
       C46          C  0.6435000  0.4225350  0.5000050    0.00000       Uiso       1.00
       C47          C  0.5774640  0.2209650  0.5000050    0.00000       Uiso       1.00
       C48          C  0.7790349  0.3565000  0.5000050    0.00000       Uiso       1.00
       C49          C  0.3790380  0.5552230  0.5000050    0.00000       Uiso       1.00
       C50          C  0.4447770  0.8238150  0.5000050    0.00000       Uiso       1.00
       C51          C  0.1761850  0.6209610  0.5000050    0.00000       Uiso       1.00
       C52          C  0.6209610  0.4447770  0.5000050    0.00000       Uiso       1.00
       C53          C  0.5552230  0.1761850  0.5000050    0.00000       Uiso       1.00
       C54          C  0.8238150  0.3790380  0.5000050    0.00000       Uiso       1.00
       C55          C  0.4243020  0.5758130  0.5000050    0.00000       Uiso       1.00
       C56          C  0.4241860  0.8484890  0.5000050    0.00000       Uiso       1.00
       C57          C  0.1515110  0.5756970  0.5000050    0.00000       Uiso       1.00
       C58          C  0.5756970  0.4241860  0.5000050    0.00000       Uiso       1.00
       C59          C  0.5758130  0.1515110  0.5000050    0.00000       Uiso       1.00
       C60          C  0.8484890  0.4243020  0.5000050    0.00000       Uiso       1.00
       C61          C  0.4449320  0.6210740  0.5000050    0.00000       Uiso       1.00
       C62          C  0.3789250  0.8238580  0.5000050    0.00000       Uiso       1.00
       C63          C  0.1761420  0.5550670  0.5000050    0.00000       Uiso       1.00
       C64          C  0.5550670  0.3789250  0.5000050    0.00000       Uiso       1.00
       C65          C  0.6210740  0.1761420  0.5000050    0.00000       Uiso       1.00
       C66          C  0.8238580  0.4449320  0.5000050    0.00000       Uiso       1.00
       C67          C  0.4227510  0.6436570  0.5000050    0.00000       Uiso       1.00
       C68          C  0.3563420  0.7790940  0.5000050    0.00000       Uiso       1.00
       C69          C  0.2209060  0.5772480  0.5000050    0.00000       Uiso       1.00
       C70          C  0.5772480  0.3563420  0.5000050    0.00000       Uiso       1.00
       C71          C  0.6436570  0.2209060  0.5000050    0.00000       Uiso       1.00
       C72          C  0.7790940  0.4227510  0.5000050    0.00000       Uiso       1.00
       H73          H  0.3239340  0.5603070  0.5000050    0.00000       Uiso       1.00
       H74          H  0.4396920  0.7636260  0.5000050    0.00000       Uiso       1.00
       H75          H  0.2363730  0.6760650  0.5000050    0.00000       Uiso       1.00
       H76          H  0.6760650  0.4396920  0.5000050    0.00000       Uiso       1.00
       H77          H  0.5603070  0.2363730  0.5000050    0.00000       Uiso       1.00
       H78          H  0.7636260  0.3239340  0.5000050    0.00000       Uiso       1.00
       H79          H  0.3606770  0.5231030  0.5000050    0.00000       Uiso       1.00
       H80          H  0.4768960  0.8375730  0.5000050    0.00000       Uiso       1.00
       H81          H  0.1624260  0.6393220  0.5000050    0.00000       Uiso       1.00
       H82          H  0.6393230  0.4768960  0.5000050    0.00000       Uiso       1.00
       H83          H  0.5231030  0.1624260  0.5000050    0.00000       Uiso       1.00
       H84          H  0.8375730  0.3606770  0.5000050    0.00000       Uiso       1.00
       H85          H  0.4770600  0.6394630  0.5000050    0.00000       Uiso       1.00
       H86          H  0.3605360  0.8375960  0.5000050    0.00000       Uiso       1.00
       H87          H  0.1624030  0.5229390  0.5000050    0.00000       Uiso       1.00
       H88          H  0.5229390  0.3605360  0.5000050    0.00000       Uiso       1.00
       H89          H  0.6394630  0.1624030  0.5000050    0.00000       Uiso       1.00
       H90          H  0.8375960  0.4770600  0.5000050    0.00000       Uiso       1.00
       H91          H  0.4400370  0.6762060  0.5000050    0.00000       Uiso       1.00
       H92          H  0.3237930  0.7638300  0.5000050    0.00000       Uiso       1.00
       H93          H  0.2361690  0.5599620  0.5000050    0.00000       Uiso       1.00
       H94          H  0.5599620  0.3237930  0.5000050    0.00000       Uiso       1.00
       H95          H  0.6762060  0.2361690  0.5000050    0.00000       Uiso       1.00
       H96          H  0.7638300  0.4400370  0.5000050    0.00000       Uiso       1.00
       C97          C  0.5702610  0.4896560  0.5000050    0.00000       Uiso       1.00
       C98          C  0.5102700  0.4296980  0.5000050    0.00000       Uiso       1.00
       H99          H  0.5676930  0.5676720  0.5000050    0.00000       Uiso       1.00
      O100          O  0.6082920  0.5188820  0.5000050    0.00000       Uiso       1.00
      O101          O  0.4810250  0.3916750  0.5000050    0.00000       Uiso       1.00
      C102          C  0.5103430  0.0806050  0.5000050    0.00000       Uiso       1.00
      C103          C  0.5703020  0.0805730  0.5000050    0.00000       Uiso       1.00
      H104          H  0.4323270  0.0000200  0.5000050    0.00000       Uiso       1.00
      O105          O  0.4811170  0.0894090  0.5000050    0.00000       Uiso       1.00
      O106          O  0.6083240  0.0893500  0.5000050    0.00000       Uiso       1.00
      C107          C  0.9193940  0.4297380  0.5000050    0.00000       Uiso       1.00
      C108          C  0.9194260  0.4897290  0.5000050    0.00000       Uiso       1.00
      H109          H  0.9999790  0.4323060  0.5000050    0.00000       Uiso       1.00
      O110          O  0.9105900  0.3917070  0.5000050    0.00000       Uiso       1.00
      O111          O  0.9106490  0.5189740  0.5000050    0.00000       Uiso       1.00
      C112          C  0.4297380  0.5103430  0.5000050    0.00000       Uiso       1.00
      C113          C  0.4897290  0.5703020  0.5000050    0.00000       Uiso       1.00
      H114          H  0.4323060  0.4323270  0.5000050    0.00000       Uiso       1.00
      O115          O  0.3917070  0.4811170  0.5000050    0.00000       Uiso       1.00
      O116          O  0.5189740  0.6083240  0.5000050    0.00000       Uiso       1.00
      C117          C  0.4896560  0.9193940  0.5000050    0.00000       Uiso       1.00
      C118          C  0.4296980  0.9194260  0.5000050    0.00000       Uiso       1.00
      H119          H  0.5676720  0.9999790  0.5000050    0.00000       Uiso       1.00
      O120          O  0.5188830  0.9105900  0.5000050    0.00000       Uiso       1.00
      O121          O  0.3916750  0.9106490  0.5000050    0.00000       Uiso       1.00
      C122          C  0.0806050  0.5702610  0.5000050    0.00000       Uiso       1.00
      C123          C  0.0805730  0.5102700  0.5000050    0.00000       Uiso       1.00
      H124          H  0.0000200  0.5676930  0.5000050    0.00000       Uiso       1.00
      O125          O  0.0894090  0.6082920  0.5000050    0.00000       Uiso       1.00
      O126          O  0.0893500  0.4810250  0.5000050    0.00000       Uiso       1.00
