data_POR-COF
_audit_creation_date              0000-00-00
_audit_creation_method            'LanYouShi'
_symmetry_space_group_name_H-M    'P1'
_cell_length_a                    24.6882992
_cell_length_b                    28.4706993
_cell_length_c                    6.9355001
_cell_angle_alpha                 90.0000000
_cell_angle_beta                  90.0000000
_cell_angle_gamma                 90.0000000
loop_
_atom_site_label
_atom_site_type_symbol
_atom_site_fract_x
_atom_site_fract_y
_atom_site_fract_z
_atom_site_U_iso_or_equiv
_atom_site_adp_type
_atom_site_occupancy
        N1          N  0.7569040  0.2276250  0.5000000    0.00000       Uiso       1.00
        O2          O  0.8035930  0.2150370  0.5000000    0.00000       Uiso       1.00
        N3          N  0.2430960  0.7723749  0.5000000    0.00000       Uiso       1.00
        O4          O  0.1964070  0.7849630  0.5000000    0.00000       Uiso       1.00
        N5          N  0.2430960  0.2276250  0.5000000    0.00000       Uiso       1.00
        O6          O  0.1964070  0.2150370  0.5000000    0.00000       Uiso       1.00
        N7          N  0.7569040  0.7723749  0.5000000    0.00000       Uiso       1.00
        O8          O  0.8035930  0.7849630  0.5000000    0.00000       Uiso       1.00
        N9          N  0.5000000  0.0744850  0.5000000    0.00000       Uiso       1.00
       N10          N  0.5000000  0.9255150  0.5000000    0.00000       Uiso       1.00
       H11          H  0.5000000  0.0404890  0.5000000    0.00000       Uiso       1.00
       H12          H  0.5000000  0.9595110  0.5000000    0.00000       Uiso       1.00
       C13          C  0.4547240  0.1011910  0.5000000    0.00000       Uiso       1.00
       C14          C  0.4547240  0.8988090  0.5000000    0.00000       Uiso       1.00
       C15          C  0.4721270  0.1478830  0.5000000    0.00000       Uiso       1.00
       C16          C  0.4721270  0.8521170  0.5000000    0.00000       Uiso       1.00
       H17          H  0.4485420  0.1773910  0.5000000    0.00000       Uiso       1.00
       H18          H  0.4485420  0.8226090  0.5000000    0.00000       Uiso       1.00
       N19          N  0.9144870  0.5000000  0.5000000    0.00000       Uiso       1.00
       C20          C  0.8830729  0.5389700  0.5000000    0.00000       Uiso       1.00
       C21          C  0.8830729  0.4610300  0.5000000    0.00000       Uiso       1.00
       C22          C  0.8291640  0.5241250  0.5000000    0.00000       Uiso       1.00
       C23          C  0.8291640  0.4758750  0.5000000    0.00000       Uiso       1.00
       H24          H  0.7951860  0.5446410  0.5000000    0.00000       Uiso       1.00
       H25          H  0.7951860  0.4553590  0.5000000    0.00000       Uiso       1.00
       C26          C  0.4000440  0.0864010  0.5000000    0.00000       Uiso       1.00
       C27          C  0.4000440  0.9135990  0.5000000    0.00000       Uiso       1.00
       C28          C  0.3597290  0.1214890  0.5000000    0.00000       Uiso       1.00
       C29          C  0.3597290  0.8785110  0.5000000    0.00000       Uiso       1.00
       C30          C  0.3395450  0.1392540  0.3238900    0.00000       Uiso       1.00
       C31          C  0.3395450  0.8607460  0.6761100    0.00000       Uiso       1.00
       C32          C  0.3395450  0.1392540  0.6761100    0.00000       Uiso       1.00
       C33          C  0.3395450  0.8607460  0.3238900    0.00000       Uiso       1.00
       H34          H  0.3536250  0.1266580  0.1950650    0.00000       Uiso       1.00
       H35          H  0.3536250  0.8733420  0.8049350    0.00000       Uiso       1.00
       H36          H  0.3536250  0.1266580  0.8049350    0.00000       Uiso       1.00
       H37          H  0.3536250  0.8733420  0.1950650    0.00000       Uiso       1.00
       C38          C  0.2999340  0.1746960  0.3240230    0.00000       Uiso       1.00
       C39          C  0.2999340  0.8253040  0.6759770    0.00000       Uiso       1.00
       C40          C  0.2999340  0.1746960  0.6759770    0.00000       Uiso       1.00
       C41          C  0.2999340  0.8253040  0.3240230    0.00000       Uiso       1.00
       H42          H  0.2857500  0.1874950  0.1957830    0.00000       Uiso       1.00
       H43          H  0.2857500  0.8125050  0.8042170    0.00000       Uiso       1.00
       H44          H  0.2857500  0.1874950  0.8042170    0.00000       Uiso       1.00
       H45          H  0.2857500  0.8125050  0.1957830    0.00000       Uiso       1.00
       C46          C  0.2801600  0.1926480  0.5000000    0.00000       Uiso       1.00
       C47          C  0.2801600  0.8073520  0.5000000    0.00000       Uiso       1.00
       C48          C  0.5452760  0.8988090  0.5000000    0.00000       Uiso       1.00
       C49          C  0.5452760  0.1011910  0.5000000    0.00000       Uiso       1.00
       C50          C  0.5278730  0.8521170  0.5000000    0.00000       Uiso       1.00
       C51          C  0.5278730  0.1478830  0.5000000    0.00000       Uiso       1.00
       H52          H  0.5514580  0.8226090  0.5000000    0.00000       Uiso       1.00
       H53          H  0.5514580  0.1773910  0.5000000    0.00000       Uiso       1.00
       N54          N  0.0855130  0.5000000  0.5000000    0.00000       Uiso       1.00
       C55          C  0.1169270  0.4610300  0.5000000    0.00000       Uiso       1.00
       C56          C  0.1169270  0.5389700  0.5000000    0.00000       Uiso       1.00
       C57          C  0.1708360  0.4758750  0.5000000    0.00000       Uiso       1.00
       C58          C  0.1708360  0.5241250  0.5000000    0.00000       Uiso       1.00
       H59          H  0.2048140  0.4553590  0.5000000    0.00000       Uiso       1.00
       H60          H  0.2048140  0.5446410  0.5000000    0.00000       Uiso       1.00
       C61          C  0.5999560  0.9135990  0.5000000    0.00000       Uiso       1.00
       C62          C  0.5999560  0.0864010  0.5000000    0.00000       Uiso       1.00
       C63          C  0.6402710  0.8785110  0.5000000    0.00000       Uiso       1.00
       C64          C  0.6402710  0.1214890  0.5000000    0.00000       Uiso       1.00
       C65          C  0.6604549  0.8607460  0.3238900    0.00000       Uiso       1.00
       C66          C  0.6604549  0.1392540  0.6761100    0.00000       Uiso       1.00
       C67          C  0.6604549  0.8607460  0.6761100    0.00000       Uiso       1.00
       C68          C  0.6604549  0.1392540  0.3238900    0.00000       Uiso       1.00
       H69          H  0.6463760  0.8733420  0.1950650    0.00000       Uiso       1.00
       H70          H  0.6463760  0.1266580  0.8049350    0.00000       Uiso       1.00
       H71          H  0.6463760  0.8733420  0.8049350    0.00000       Uiso       1.00
       H72          H  0.6463760  0.1266580  0.1950650    0.00000       Uiso       1.00
       C73          C  0.7000660  0.8253040  0.3240230    0.00000       Uiso       1.00
       C74          C  0.7000660  0.1746960  0.6759770    0.00000       Uiso       1.00
       C75          C  0.7000660  0.8253040  0.6759770    0.00000       Uiso       1.00
       C76          C  0.7000660  0.1746960  0.3240230    0.00000       Uiso       1.00
       H77          H  0.7142501  0.8125050  0.1957830    0.00000       Uiso       1.00
       H78          H  0.7142501  0.1874950  0.8042170    0.00000       Uiso       1.00
       H79          H  0.7142501  0.8125050  0.8042170    0.00000       Uiso       1.00
       H80          H  0.7142501  0.1874950  0.1957830    0.00000       Uiso       1.00
       C81          C  0.7198400  0.8073520  0.5000000    0.00000       Uiso       1.00
       C82          C  0.7198400  0.1926480  0.5000000    0.00000       Uiso       1.00
       N83          N  0.2569040  0.7276251  0.5000000    0.00000       Uiso       1.00
       O84          O  0.3035930  0.7150370  0.5000000    0.00000       Uiso       1.00
       N85          N  0.0000000  0.5744850  0.5000000    0.00000       Uiso       1.00
       H86          H  0.0000000  0.5404890  0.5000000    0.00000       Uiso       1.00
       C87          C -0.0452760  0.6011910  0.5000000    0.00000       Uiso       1.00
       C88          C -0.0278730  0.6478830  0.5000000    0.00000       Uiso       1.00
       H89          H -0.0514580  0.6773910  0.5000000    0.00000       Uiso       1.00
       C90          C -0.0999560  0.5864010  0.5000000    0.00000       Uiso       1.00
       C91          C -0.1402710  0.6214890  0.5000000    0.00000       Uiso       1.00
       C92          C -0.1604550  0.6392540  0.3238900    0.00000       Uiso       1.00
       C93          C -0.1604550  0.6392540  0.6761100    0.00000       Uiso       1.00
       H94          H -0.1463760  0.6266580  0.1950650    0.00000       Uiso       1.00
       H95          H -0.1463760  0.6266580  0.8049350    0.00000       Uiso       1.00
       C96          C -0.2000660  0.6746960  0.3240230    0.00000       Uiso       1.00
       C97          C -0.2000660  0.6746960  0.6759770    0.00000       Uiso       1.00
       H98          H -0.2142500  0.6874950  0.1957830    0.00000       Uiso       1.00
       H99          H -0.2142500  0.6874950  0.8042170    0.00000       Uiso       1.00
      C100          C -0.2198400  0.6926480  0.5000000    0.00000       Uiso       1.00
      C101          C  0.0452760  0.6011910  0.5000000    0.00000       Uiso       1.00
      C102          C  0.0278730  0.6478830  0.5000000    0.00000       Uiso       1.00
      H103          H  0.0514580  0.6773910  0.5000000    0.00000       Uiso       1.00
      C104          C  0.0999560  0.5864010  0.5000000    0.00000       Uiso       1.00
      C105          C  0.1402710  0.6214890  0.5000000    0.00000       Uiso       1.00
      C106          C  0.1604550  0.6392540  0.6761100    0.00000       Uiso       1.00
      C107          C  0.1604550  0.6392540  0.3238900    0.00000       Uiso       1.00
      H108          H  0.1463760  0.6266580  0.8049350    0.00000       Uiso       1.00
      H109          H  0.1463760  0.6266580  0.1950650    0.00000       Uiso       1.00
      C110          C  0.2000660  0.6746960  0.6759770    0.00000       Uiso       1.00
      C111          C  0.2000660  0.6746960  0.3240230    0.00000       Uiso       1.00
      H112          H  0.2142500  0.6874950  0.8042170    0.00000       Uiso       1.00
      H113          H  0.2142500  0.6874950  0.1957830    0.00000       Uiso       1.00
      C114          C  0.2198400  0.6926480  0.5000000    0.00000       Uiso       1.00
      N115          N  0.7430960  0.2723750  0.5000000    0.00000       Uiso       1.00
      O116          O  0.6964071  0.2849630  0.5000000    0.00000       Uiso       1.00
      N117          N  0.5855130  0.0000000  0.5000000    0.00000       Uiso       1.00
      C118          C  0.6169270 -0.0389700  0.5000000    0.00000       Uiso       1.00
      C119          C  0.6169270  0.0389700  0.5000000    0.00000       Uiso       1.00
      C120          C  0.6708360 -0.0241250  0.5000000    0.00000       Uiso       1.00
      C121          C  0.6708360  0.0241250  0.5000000    0.00000       Uiso       1.00
      H122          H  0.7048140 -0.0446410  0.5000000    0.00000       Uiso       1.00
      H123          H  0.7048140  0.0446410  0.5000000    0.00000       Uiso       1.00
      N124          N  0.7430960  0.7276251  0.5000000    0.00000       Uiso       1.00
      O125          O  0.6964071  0.7150370  0.5000000    0.00000       Uiso       1.00
      N126          N  0.2569040  0.2723750  0.5000000    0.00000       Uiso       1.00
      O127          O  0.3035930  0.2849630  0.5000000    0.00000       Uiso       1.00
      N128          N  0.0000000  0.4255150  0.5000000    0.00000       Uiso       1.00
      H129          H  0.0000000  0.4595110  0.5000000    0.00000       Uiso       1.00
      C130          C  0.0452760  0.3988090  0.5000000    0.00000       Uiso       1.00
      C131          C  0.0278730  0.3521170  0.5000000    0.00000       Uiso       1.00
      H132          H  0.0514580  0.3226090  0.5000000    0.00000       Uiso       1.00
      C133          C  0.0999560  0.4135990  0.5000000    0.00000       Uiso       1.00
      C134          C  0.1402710  0.3785110  0.5000000    0.00000       Uiso       1.00
      C135          C  0.1604550  0.3607460  0.3238900    0.00000       Uiso       1.00
      C136          C  0.1604550  0.3607460  0.6761100    0.00000       Uiso       1.00
      H137          H  0.1463760  0.3733420  0.1950650    0.00000       Uiso       1.00
      H138          H  0.1463760  0.3733420  0.8049350    0.00000       Uiso       1.00
      C139          C  0.2000660  0.3253040  0.3240230    0.00000       Uiso       1.00
      C140          C  0.2000660  0.3253040  0.6759770    0.00000       Uiso       1.00
      H141          H  0.2142500  0.3125050  0.1957830    0.00000       Uiso       1.00
      H142          H  0.2142500  0.3125050  0.8042170    0.00000       Uiso       1.00
      C143          C  0.2198400  0.3073520  0.5000000    0.00000       Uiso       1.00
      C144          C -0.0452760  0.3988090  0.5000000    0.00000       Uiso       1.00
      C145          C -0.0278730  0.3521170  0.5000000    0.00000       Uiso       1.00
      H146          H -0.0514580  0.3226090  0.5000000    0.00000       Uiso       1.00
      N147          N  0.4144870  0.0000000  0.5000000    0.00000       Uiso       1.00
      C148          C  0.3830730  0.0389700  0.5000000    0.00000       Uiso       1.00
      C149          C  0.3830730 -0.0389700  0.5000000    0.00000       Uiso       1.00
      C150          C  0.3291640  0.0241250  0.5000000    0.00000       Uiso       1.00
      C151          C  0.3291640 -0.0241250  0.5000000    0.00000       Uiso       1.00
      H152          H  0.2951860  0.0446410  0.5000000    0.00000       Uiso       1.00
      H153          H  0.2951860 -0.0446410  0.5000000    0.00000       Uiso       1.00
      C154          C -0.0999560  0.4135990  0.5000000    0.00000       Uiso       1.00
      C155          C -0.1402710  0.3785110  0.5000000    0.00000       Uiso       1.00
      C156          C -0.1604550  0.3607460  0.6761100    0.00000       Uiso       1.00
      C157          C -0.1604550  0.3607460  0.3238900    0.00000       Uiso       1.00
      H158          H -0.1463760  0.3733420  0.8049350    0.00000       Uiso       1.00
      H159          H -0.1463760  0.3733420  0.1950650    0.00000       Uiso       1.00
      C160          C -0.2000660  0.3253040  0.6759770    0.00000       Uiso       1.00
      C161          C -0.2000660  0.3253040  0.3240230    0.00000       Uiso       1.00
      H162          H -0.2142500  0.3125050  0.8042170    0.00000       Uiso       1.00
      H163          H -0.2142500  0.3125050  0.1957830    0.00000       Uiso       1.00
      C164          C -0.2198400  0.3073520  0.5000000    0.00000       Uiso       1.00
