data_Por-COF-jmca
_audit_creation_date              0000-00-00
_audit_creation_method            'LanYouShi'
_symmetry_space_group_name_H-M    'P1'
_cell_length_a                    25.4169998
_cell_length_b                    12.3769999
_cell_length_c                    25.4169998
_cell_angle_alpha                 90.0000000
_cell_angle_beta                  90.0000000
_cell_angle_gamma                 90.0000000
loop_
_atom_site_label
_atom_site_type_symbol
_atom_site_fract_x
_atom_site_fract_y
_atom_site_fract_z
_atom_site_U_iso_or_equiv
_atom_site_adp_type
_atom_site_occupancy
        C1          C  0.0080000  0.2360000  0.3060000    0.00000       Uiso       1.00
        C2          C  0.9920000  0.2360000  0.6940000    0.00000       Uiso       1.00
        C3          C  0.9920000  0.7640000  0.6940000    0.00000       Uiso       1.00
        C4          C  0.0080000  0.7640000  0.3060000    0.00000       Uiso       1.00
        C5          C  0.0340000  0.3230000  0.2830000    0.00000       Uiso       1.00
        C6          C  0.9660000  0.3230000  0.7170000    0.00000       Uiso       1.00
        C7          C  0.9660000  0.6770000  0.7170000    0.00000       Uiso       1.00
        C8          C  0.0340000  0.6770000  0.2830000    0.00000       Uiso       1.00
        C9          C  0.0330000  0.3390000  0.2280000    0.00000       Uiso       1.00
       C10          C  0.9670000  0.3390000  0.7720000    0.00000       Uiso       1.00
       C11          C  0.9670000  0.6610000  0.7720000    0.00000       Uiso       1.00
       C12          C  0.0330000  0.6610000  0.2280000    0.00000       Uiso       1.00
       C13          C  0.0447160  0.1444810  0.4655180    0.00000       Uiso       1.00
       C14          C  0.9552840  0.1444810  0.5344820    0.00000       Uiso       1.00
       C15          C  0.9552840  0.8555190  0.5344820    0.00000       Uiso       1.00
       C16          C  0.0447160  0.8555190  0.4655180    0.00000       Uiso       1.00
       C17          C  0.0090000  0.2650000  0.1950000    0.00000       Uiso       1.00
       C18          C  0.9910001  0.2650000  0.8050000    0.00000       Uiso       1.00
       C19          C  0.9910001  0.7350001  0.8050000    0.00000       Uiso       1.00
       C20          C  0.0090000  0.7350001  0.1950000    0.00000       Uiso       1.00
       C21          C  0.0070000  0.2820000  0.1370000    0.00000       Uiso       1.00
       C22          C  0.9930000  0.2820000  0.8630000    0.00000       Uiso       1.00
       C23          C  0.9930000  0.7179999  0.8630000    0.00000       Uiso       1.00
       C24          C  0.0070000  0.7179999  0.1370000    0.00000       Uiso       1.00
       C25          C  0.0158860  0.2216750  0.3586890    0.00000       Uiso       1.00
       C26          C  0.9841140  0.2216750  0.6413110    0.00000       Uiso       1.00
       C27          C  0.9841140  0.7783250  0.6413110    0.00000       Uiso       1.00
       C28          C  0.0158860  0.7783250  0.3586890    0.00000       Uiso       1.00
       C29          C  0.9830000  0.1690000  0.2180000    0.00000       Uiso       1.00
       C30          C  0.0170000  0.1690000  0.7820001    0.00000       Uiso       1.00
       C31          C  0.0170000  0.8310000  0.7820001    0.00000       Uiso       1.00
       C32          C  0.9830000  0.8310000  0.2180000    0.00000       Uiso       1.00
       C33          C  0.9800000  0.1570000  0.2720000    0.00000       Uiso       1.00
       C34          C  0.0200000  0.1570000  0.7280000    0.00000       Uiso       1.00
       C35          C  0.0200000  0.8430001  0.7280000    0.00000       Uiso       1.00
       C36          C  0.9800000  0.8430001  0.2720000    0.00000       Uiso       1.00
       N37          N  0.9795490  0.1695600  0.3942410    0.00000       Uiso       1.00
       N38          N  0.0204510  0.1695600  0.6057590    0.00000       Uiso       1.00
       N39          N  0.0204510  0.8304400  0.6057590    0.00000       Uiso       1.00
       N40          N  0.9795490  0.8304400  0.3942410    0.00000       Uiso       1.00
       C41          C  0.9464419  0.1384240  0.4821730    0.00000       Uiso       1.00
       C42          C  0.0535580  0.1384240  0.5178270    0.00000       Uiso       1.00
       C43          C  0.0535580  0.8615760  0.5178270    0.00000       Uiso       1.00
       C44          C  0.9464419  0.8615760  0.4821730    0.00000       Uiso       1.00
       C45          C  0.9901270  0.1486980  0.4439610    0.00000       Uiso       1.00
       C46          C  0.0098730  0.1486980  0.5560390    0.00000       Uiso       1.00
       C47          C  0.0098730  0.8513020  0.5560390    0.00000       Uiso       1.00
       C48          C  0.9901270  0.8513020  0.4439610    0.00000       Uiso       1.00
       N49          N  0.9450000  0.2870000  0.0590000    0.00000       Uiso       1.00
       N50          N  0.0550000  0.2870000  0.9410000    0.00000       Uiso       1.00
       N51          N  0.0550000  0.7129999  0.9410000    0.00000       Uiso       1.00
       N52          N  0.9450000  0.7129999  0.0590000    0.00000       Uiso       1.00
       C53          C  0.9550000  0.2880000  0.1120000    0.00000       Uiso       1.00
       C54          C  0.0450000  0.2880000  0.8880000    0.00000       Uiso       1.00
       C55          C  0.0450000  0.7120000  0.8880000    0.00000       Uiso       1.00
       C56          C  0.9550000  0.7120000  0.1120000    0.00000       Uiso       1.00
       C57          C  0.9080000  0.2900000  0.1400000    0.00000       Uiso       1.00
       C58          C  0.0920000  0.2900000  0.8600000    0.00000       Uiso       1.00
       C59          C  0.0920000  0.7099999  0.8600000    0.00000       Uiso       1.00
       C60          C  0.9080000  0.7099999  0.1400000    0.00000       Uiso       1.00
       C61          C  0.8920000  0.2860000  0.0550000    0.00000       Uiso       1.00
       C62          C  0.1080000  0.2860000  0.9450000    0.00000       Uiso       1.00
       C63          C  0.1080000  0.7139999  0.9450000    0.00000       Uiso       1.00
       C64          C  0.8920000  0.7139999  0.0550000    0.00000       Uiso       1.00
       C65          C  0.8680000  0.2860000  0.1040000    0.00000       Uiso       1.00
       C66          C  0.1320000  0.2860000  0.8960000    0.00000       Uiso       1.00
       C67          C  0.1320000  0.7139999  0.8960000    0.00000       Uiso       1.00
       C68          C  0.8680000  0.7139999  0.1040000    0.00000       Uiso       1.00
       H69          H  0.0544580  0.3810630  0.3074790    0.00000       Uiso       1.00
       H70          H  0.9455420  0.3810630  0.6925209    0.00000       Uiso       1.00
       H71          H  0.9455420  0.6189370  0.6925209    0.00000       Uiso       1.00
       H72          H  0.0544580  0.6189370  0.3074790    0.00000       Uiso       1.00
       H73          H  0.0521460  0.4092420  0.2116840    0.00000       Uiso       1.00
       H74          H  0.9478550  0.4092420  0.7883161    0.00000       Uiso       1.00
       H75          H  0.9478550  0.5907590  0.7883161    0.00000       Uiso       1.00
       H76          H  0.0521460  0.5907590  0.2116840    0.00000       Uiso       1.00
       H77          H  0.0778120  0.1410770  0.4388300    0.00000       Uiso       1.00
       H78          H  0.9221879  0.1410770  0.5611700    0.00000       Uiso       1.00
       H79          H  0.9221879  0.8589230  0.5611700    0.00000       Uiso       1.00
       H80          H  0.0778120  0.8589230  0.4388300    0.00000       Uiso       1.00
       H81          H  0.9641429  0.1101270  0.1927480    0.00000       Uiso       1.00
       H82          H  0.0358570  0.1101270  0.8072520    0.00000       Uiso       1.00
       H83          H  0.0358570  0.8898730  0.8072520    0.00000       Uiso       1.00
       H84          H  0.9641429  0.8898730  0.1927480    0.00000       Uiso       1.00
       H85          H  0.9584500  0.0903590  0.2887730    0.00000       Uiso       1.00
       H86          H  0.0415500  0.0903590  0.7112270    0.00000       Uiso       1.00
       H87          H  0.0415500  0.9096410  0.7112270    0.00000       Uiso       1.00
       H88          H  0.9584500  0.9096410  0.2887730    0.00000       Uiso       1.00
       H89          H  0.9065240  0.1337760  0.4675440    0.00000       Uiso       1.00
       H90          H  0.0934760  0.1337760  0.5324560    0.00000       Uiso       1.00
       H91          H  0.0934760  0.8662240  0.5324560    0.00000       Uiso       1.00
       H92          H  0.9065240  0.8662240  0.4675440    0.00000       Uiso       1.00
       H93          H  0.9028519  0.2918300  0.1822270    0.00000       Uiso       1.00
       H94          H  0.0971480  0.2918300  0.8177730    0.00000       Uiso       1.00
       H95          H  0.0971480  0.7081701  0.8177730    0.00000       Uiso       1.00
       H96          H  0.9028519  0.7081701  0.1822270    0.00000       Uiso       1.00
       H97          H  0.8267240  0.2819790  0.1138490    0.00000       Uiso       1.00
       H98          H  0.1732760  0.2819790  0.8861510    0.00000       Uiso       1.00
       H99          H  0.1732760  0.7180210  0.8861510    0.00000       Uiso       1.00
      H100          H  0.8267240  0.7180210  0.1138490    0.00000       Uiso       1.00
      H101          H  0.9705719  0.7192360  0.9719341    0.00000       Uiso       1.00
      H102          H  0.0294280  0.7192360  0.0280660    0.00000       Uiso       1.00
      H103          H  0.0294280  0.2807640  0.0280660    0.00000       Uiso       1.00
      H104          H  0.9705719  0.2807640  0.9719341    0.00000       Uiso       1.00
      C105          C  0.3060000  0.2360000  0.9920000    0.00000       Uiso       1.00
      C106          C  0.6940000  0.2360000  0.0080000    0.00000       Uiso       1.00
      C107          C  0.6940000  0.7640000  0.0080000    0.00000       Uiso       1.00
      C108          C  0.3060000  0.7640000  0.9920000    0.00000       Uiso       1.00
      C109          C  0.2830000  0.3230000  0.9660000    0.00000       Uiso       1.00
      C110          C  0.7170000  0.3230000  0.0340000    0.00000       Uiso       1.00
      C111          C  0.7170000  0.6770000  0.0340000    0.00000       Uiso       1.00
      C112          C  0.2830000  0.6770000  0.9660000    0.00000       Uiso       1.00
      C113          C  0.2280000  0.3390000  0.9670000    0.00000       Uiso       1.00
      C114          C  0.7720000  0.3390000  0.0330000    0.00000       Uiso       1.00
      C115          C  0.7720000  0.6610000  0.0330000    0.00000       Uiso       1.00
      C116          C  0.2280000  0.6610000  0.9670000    0.00000       Uiso       1.00
      C117          C  0.4672970  0.1358100  0.9558870    0.00000       Uiso       1.00
      C118          C  0.5327030  0.1358100  0.0441130    0.00000       Uiso       1.00
      C119          C  0.5327030  0.8641900  0.0441130    0.00000       Uiso       1.00
      C120          C  0.4672970  0.8641900  0.9558870    0.00000       Uiso       1.00
      C121          C  0.1950000  0.2650000  0.9910001    0.00000       Uiso       1.00
      C122          C  0.8050000  0.2650000  0.0090000    0.00000       Uiso       1.00
      C123          C  0.8050000  0.7350001  0.0090000    0.00000       Uiso       1.00
      C124          C  0.1950000  0.7350001  0.9910001    0.00000       Uiso       1.00
      C125          C  0.1370000  0.2820000  0.9930000    0.00000       Uiso       1.00
      C126          C  0.8630000  0.2820000  0.0070000    0.00000       Uiso       1.00
      C127          C  0.8630000  0.7179999  0.0070000    0.00000       Uiso       1.00
      C128          C  0.1370000  0.7179999  0.9930000    0.00000       Uiso       1.00
      C129          C  0.3633350  0.2225120  0.9871810    0.00000       Uiso       1.00
      C130          C  0.6366650  0.2225120  0.0128190    0.00000       Uiso       1.00
      C131          C  0.6366650  0.7774880  0.0128190    0.00000       Uiso       1.00
      C132          C  0.3633350  0.7774880  0.9871810    0.00000       Uiso       1.00
      C133          C  0.2180000  0.1690000  0.0170000    0.00000       Uiso       1.00
      C134          C  0.7820001  0.1690000  0.9830000    0.00000       Uiso       1.00
      C135          C  0.7820001  0.8310000  0.9830000    0.00000       Uiso       1.00
      C136          C  0.2180000  0.8310000  0.0170000    0.00000       Uiso       1.00
      C137          C  0.2720000  0.1570000  0.0200000    0.00000       Uiso       1.00
      C138          C  0.7280000  0.1570000  0.9800000    0.00000       Uiso       1.00
      C139          C  0.7280000  0.8430001  0.9800000    0.00000       Uiso       1.00
      C140          C  0.2720000  0.8430001  0.0200000    0.00000       Uiso       1.00
      N141          N  0.3894510  0.1509250  0.0138080    0.00000       Uiso       1.00
      N142          N  0.6105490  0.1509250  0.9861930    0.00000       Uiso       1.00
      N143          N  0.6105490  0.8490750  0.9861930    0.00000       Uiso       1.00
      N144          N  0.3894510  0.8490750  0.0138080    0.00000       Uiso       1.00
      C145          C  0.4779880  0.1348230  0.0505340    0.00000       Uiso       1.00
      C146          C  0.5220120  0.1348230  0.9494659    0.00000       Uiso       1.00
      C147          C  0.5220120  0.8651769  0.9494659    0.00000       Uiso       1.00
      C148          C  0.4779880  0.8651769  0.0505340    0.00000       Uiso       1.00
      C149          C  0.4450660  0.1383090  0.0065820    0.00000       Uiso       1.00
      C150          C  0.5549340  0.1383090  0.9934180    0.00000       Uiso       1.00
      C151          C  0.5549340  0.8616910  0.9934180    0.00000       Uiso       1.00
      C152          C  0.4450660  0.8616910  0.0065820    0.00000       Uiso       1.00
      N153          N  0.0590000  0.2870000  0.0550000    0.00000       Uiso       1.00
      N154          N  0.9410000  0.2870000  0.9450000    0.00000       Uiso       1.00
      N155          N  0.9410000  0.7129999  0.9450000    0.00000       Uiso       1.00
      N156          N  0.0590000  0.7129999  0.0550000    0.00000       Uiso       1.00
      C157          C  0.1120000  0.2880000  0.0450000    0.00000       Uiso       1.00
      C158          C  0.8880000  0.2880000  0.9550000    0.00000       Uiso       1.00
      C159          C  0.8880000  0.7120000  0.9550000    0.00000       Uiso       1.00
      C160          C  0.1120000  0.7120000  0.0450000    0.00000       Uiso       1.00
      C161          C  0.1400000  0.2900000  0.0920000    0.00000       Uiso       1.00
      C162          C  0.8600000  0.2900000  0.9080000    0.00000       Uiso       1.00
      C163          C  0.8600000  0.7099999  0.9080000    0.00000       Uiso       1.00
      C164          C  0.1400000  0.7099999  0.0920000    0.00000       Uiso       1.00
      C165          C  0.0550000  0.2860000  0.1080000    0.00000       Uiso       1.00
      C166          C  0.9450000  0.2860000  0.8920000    0.00000       Uiso       1.00
      C167          C  0.9450000  0.7139999  0.8920000    0.00000       Uiso       1.00
      C168          C  0.0550000  0.7139999  0.1080000    0.00000       Uiso       1.00
      C169          C  0.1040000  0.2860000  0.1320000    0.00000       Uiso       1.00
      C170          C  0.8960000  0.2860000  0.8680000    0.00000       Uiso       1.00
      C171          C  0.8960000  0.7139999  0.8680000    0.00000       Uiso       1.00
      C172          C  0.1040000  0.7139999  0.1320000    0.00000       Uiso       1.00
      H173          H  0.3074790  0.3810630  0.9455430    0.00000       Uiso       1.00
      H174          H  0.6925209  0.3810630  0.0544570    0.00000       Uiso       1.00
      H175          H  0.6925209  0.6189370  0.0544570    0.00000       Uiso       1.00
      H176          H  0.3074790  0.6189370  0.9455430    0.00000       Uiso       1.00
      H177          H  0.2116840  0.4092420  0.9478550    0.00000       Uiso       1.00
      H178          H  0.7883161  0.4092420  0.0521450    0.00000       Uiso       1.00
      H179          H  0.7883161  0.5907580  0.0521450    0.00000       Uiso       1.00
      H180          H  0.2116840  0.5907580  0.9478550    0.00000       Uiso       1.00
      H181          H  0.4421110  0.1357050  0.9215750    0.00000       Uiso       1.00
      H182          H  0.5578890  0.1357050  0.0784250    0.00000       Uiso       1.00
      H183          H  0.5578890  0.8642950  0.0784250    0.00000       Uiso       1.00
      H184          H  0.4421110  0.8642950  0.9215750    0.00000       Uiso       1.00
      H185          H  0.1927480  0.1101290  0.0358580    0.00000       Uiso       1.00
      H186          H  0.8072520  0.1101290  0.9641420    0.00000       Uiso       1.00
      H187          H  0.8072520  0.8898710  0.9641420    0.00000       Uiso       1.00
      H188          H  0.1927480  0.8898710  0.0358580    0.00000       Uiso       1.00
      H189          H  0.2887730  0.0903590  0.0415500    0.00000       Uiso       1.00
      H190          H  0.7112270  0.0903590  0.9584500    0.00000       Uiso       1.00
      H191          H  0.7112270  0.9096410  0.9584500    0.00000       Uiso       1.00
      H192          H  0.2887730  0.9096410  0.0415500    0.00000       Uiso       1.00
      H193          H  0.4610020  0.1354050  0.0895620    0.00000       Uiso       1.00
      H194          H  0.5389980  0.1354050  0.9104380    0.00000       Uiso       1.00
      H195          H  0.5389980  0.8645949  0.9104380    0.00000       Uiso       1.00
      H196          H  0.4610020  0.8645949  0.0895620    0.00000       Uiso       1.00
      H197          H  0.1822270  0.2918300  0.0971470    0.00000       Uiso       1.00
      H198          H  0.8177730  0.2918300  0.9028530    0.00000       Uiso       1.00
      H199          H  0.8177730  0.7081701  0.9028530    0.00000       Uiso       1.00
      H200          H  0.1822270  0.7081701  0.0971470    0.00000       Uiso       1.00
      H201          H  0.1138480  0.2819790  0.1732760    0.00000       Uiso       1.00
      H202          H  0.8861521  0.2819790  0.8267240    0.00000       Uiso       1.00
      H203          H  0.8861521  0.7180210  0.8267240    0.00000       Uiso       1.00
      H204          H  0.1138480  0.7180210  0.1732760    0.00000       Uiso       1.00
      H205          H  0.3841470  0.7236859  0.9606210    0.00000       Uiso       1.00
      H206          H  0.0455470  0.7283420  0.3775260    0.00000       Uiso       1.00
      H207          H  0.6158530  0.7236859  0.0393790    0.00000       Uiso       1.00
      H208          H  0.9544529  0.7283420  0.6224740    0.00000       Uiso       1.00
      H209          H  0.6158530  0.2763140  0.0393790    0.00000       Uiso       1.00
      H210          H  0.9544529  0.2716580  0.6224740    0.00000       Uiso       1.00
      H211          H  0.3841470  0.2763140  0.9606210    0.00000       Uiso       1.00
      H212          H  0.0455470  0.2716580  0.3775260    0.00000       Uiso       1.00
