data_Py-1P-COF
_audit_creation_date              0000-00-00
_audit_creation_method            'LanYouShi'
_symmetry_space_group_name_H-M    'P1'
_cell_length_a                    32.5698013
_cell_length_b                    35.8554993
_cell_length_c                    4.0200000
_cell_angle_alpha                 90.0000000
_cell_angle_beta                  90.0000000
_cell_angle_gamma                 90.0000000
loop_
_atom_site_label
_atom_site_type_symbol
_atom_site_fract_x
_atom_site_fract_y
_atom_site_fract_z
_atom_site_U_iso_or_equiv
_atom_site_adp_type
_atom_site_occupancy
        C1          C  0.5442400  0.5343460 -0.2165970    0.00000       Uiso       1.00
        C2          C  0.4785660  0.5671190 -0.2779790    0.00000       Uiso       1.00
        C3          C  0.4123960  0.5347470 -0.1640350    0.00000       Uiso       1.00
        C4          C  0.3874820  0.5673770 -0.1426980    0.00000       Uiso       1.00
        C5          C  0.3489180  0.5692540 -0.3065960    0.00000       Uiso       1.00
        C6          C  0.3235290  0.6008560 -0.2808580    0.00000       Uiso       1.00
        C7          C  0.3361500  0.6322780 -0.0971840    0.00000       Uiso       1.00
        C8          C  0.3745560  0.6310080  0.0656430    0.00000       Uiso       1.00
        C9          C  0.3991890  0.5988610  0.0477930    0.00000       Uiso       1.00
       H10          H  0.4645350  0.5920310 -0.3215530    0.00000       Uiso       1.00
       H11          H  0.3388300  0.5475020 -0.4497830    0.00000       Uiso       1.00
       H12          H  0.2957840  0.6008580 -0.4006960    0.00000       Uiso       1.00
       H13          H  0.3848380  0.6530820  0.2026870    0.00000       Uiso       1.00
       H14          H  0.4259580  0.5987230  0.1790980    0.00000       Uiso       1.00
       C15          C  0.2183410  0.7776740  0.0038540    0.00000       Uiso       1.00
       C16          C  0.2123260  0.7417130 -0.1323300    0.00000       Uiso       1.00
       C17          C  0.2433930  0.7145130 -0.1172960    0.00000       Uiso       1.00
       C18          C  0.2816580  0.7223260  0.0344690    0.00000       Uiso       1.00
       C19          C  0.2876730  0.7582880  0.1706520    0.00000       Uiso       1.00
       C20          C  0.2566070  0.7854870  0.1556140    0.00000       Uiso       1.00
       H21          H  0.1851360  0.7348760 -0.2448020    0.00000       Uiso       1.00
       H22          H  0.2376030  0.6889030 -0.2192450    0.00000       Uiso       1.00
       H23          H  0.3148630  0.7651240  0.2831270    0.00000       Uiso       1.00
       H24          H  0.2623970  0.8110980  0.2575600    0.00000       Uiso       1.00
       C25          C  0.1866490  0.8043580 -0.0152290    0.00000       Uiso       1.00
       N26          N  0.1900700  0.8383960  0.1272660    0.00000       Uiso       1.00
       H27          H  0.8397020  0.2023520 -0.1398640    0.00000       Uiso       1.00
       C28          C  0.9557600  0.0343460  0.2549950    0.00000       Uiso       1.00
       C29          C  0.0214340  0.0671190  0.3163730    0.00000       Uiso       1.00
       C30          C  0.0876050  0.0347470  0.2024320    0.00000       Uiso       1.00
       C31          C  0.1125180  0.0673770  0.1810870    0.00000       Uiso       1.00
       C32          C  0.1510830  0.0692540  0.3449780    0.00000       Uiso       1.00
       C33          C  0.1764720  0.1008570  0.3192250    0.00000       Uiso       1.00
       C34          C  0.1638500  0.1322780  0.1355410    0.00000       Uiso       1.00
       C35          C  0.1254440  0.1310070 -0.0272760    0.00000       Uiso       1.00
       C36          C  0.1008110  0.0988600 -0.0094110    0.00000       Uiso       1.00
       H37          H  0.0354650  0.0920310  0.3599430    0.00000       Uiso       1.00
       H38          H  0.1611710  0.0475030  0.4881720    0.00000       Uiso       1.00
       H39          H  0.2042170  0.1008590  0.4390570    0.00000       Uiso       1.00
       H40          H  0.1151610  0.1530810 -0.1643250    0.00000       Uiso       1.00
       H41          H  0.0740410  0.0987220 -0.1407110    0.00000       Uiso       1.00
       C42          C  0.3133500  0.3043580  0.0535600    0.00000       Uiso       1.00
       N43          N  0.3099300  0.3383960 -0.0889290    0.00000       Uiso       1.00
       H44          H  0.6603010  0.7023530  0.1782030    0.00000       Uiso       1.00
       C45          C  0.4557600  0.4656540 -0.2165970    0.00000       Uiso       1.00
       C46          C  0.5214350  0.4328810 -0.2779790    0.00000       Uiso       1.00
       C47          C  0.5876050  0.4652520 -0.1640350    0.00000       Uiso       1.00
       C48          C  0.6125190  0.4326230 -0.1426980    0.00000       Uiso       1.00
       C49          C  0.6510830  0.4307460 -0.3065960    0.00000       Uiso       1.00
       C50          C  0.6764720  0.3991430 -0.2808580    0.00000       Uiso       1.00
       C51          C  0.6638510  0.3677210 -0.0971840    0.00000       Uiso       1.00
       C52          C  0.6254450  0.3689920  0.0656430    0.00000       Uiso       1.00
       C53          C  0.6008120  0.4011390  0.0477930    0.00000       Uiso       1.00
       H54          H  0.5354650  0.4079690 -0.3215530    0.00000       Uiso       1.00
       H55          H  0.6611710  0.4524980 -0.4497830    0.00000       Uiso       1.00
       H56          H  0.7042160  0.3991420 -0.4006960    0.00000       Uiso       1.00
       H57          H  0.6151630  0.3469170  0.2026870    0.00000       Uiso       1.00
       H58          H  0.5740430  0.4012770  0.1790980    0.00000       Uiso       1.00
       C59          C  0.7816600  0.2223250  0.0038540    0.00000       Uiso       1.00
       C60          C  0.7876750  0.2582870 -0.1323300    0.00000       Uiso       1.00
       C61          C  0.7566080  0.2854860 -0.1172960    0.00000       Uiso       1.00
       C62          C  0.7183420  0.2776740  0.0344690    0.00000       Uiso       1.00
       C63          C  0.7123270  0.2417120  0.1706520    0.00000       Uiso       1.00
       C64          C  0.7433940  0.2145130  0.1556140    0.00000       Uiso       1.00
       H65          H  0.8148640  0.2651240 -0.2448020    0.00000       Uiso       1.00
       H66          H  0.7623980  0.3110970 -0.2192450    0.00000       Uiso       1.00
       H67          H  0.6851380  0.2348760  0.2831270    0.00000       Uiso       1.00
       H68          H  0.7376040  0.1889020  0.2575600    0.00000       Uiso       1.00
       C69          C  0.8133520  0.1956420 -0.0152290    0.00000       Uiso       1.00
       N70          N  0.8099300  0.1616030  0.1272660    0.00000       Uiso       1.00
       H71          H  0.1602990  0.7976480 -0.1398640    0.00000       Uiso       1.00
       C72          C  0.0442400  0.9656541  0.2549950    0.00000       Uiso       1.00
       C73          C  0.9785660  0.9328810  0.3163730    0.00000       Uiso       1.00
       C74          C  0.9123960  0.9652520  0.2024320    0.00000       Uiso       1.00
       C75          C  0.8874820  0.9326220  0.1810870    0.00000       Uiso       1.00
       C76          C  0.8489180  0.9307450  0.3449780    0.00000       Uiso       1.00
       C77          C  0.8235290  0.8991430  0.3192250    0.00000       Uiso       1.00
       C78          C  0.8361510  0.8677210  0.1355410    0.00000       Uiso       1.00
       C79          C  0.8745570  0.8689920 -0.0272760    0.00000       Uiso       1.00
       C80          C  0.8991900  0.9011391 -0.0094110    0.00000       Uiso       1.00
       H81          H  0.9645360  0.9079691  0.3599430    0.00000       Uiso       1.00
       H82          H  0.8388290  0.9524959  0.4881720    0.00000       Uiso       1.00
       H83          H  0.7957840  0.8991410  0.4390570    0.00000       Uiso       1.00
       H84          H  0.8848400  0.8469180 -0.1643250    0.00000       Uiso       1.00
       H85          H  0.9259590  0.9012780 -0.1407110    0.00000       Uiso       1.00
       C86          C  0.6866500  0.6956420  0.0535600    0.00000       Uiso       1.00
       N87          N  0.6900710  0.6616030 -0.0889290    0.00000       Uiso       1.00
       H88          H  0.3396990  0.2976470  0.1782030    0.00000       Uiso       1.00
       C89          C  0.5442400  0.4656540 -0.2165970    0.00000       Uiso       1.00
       C90          C  0.4785660  0.4328810 -0.2779790    0.00000       Uiso       1.00
       C91          C  0.4123960  0.4652520 -0.1640350    0.00000       Uiso       1.00
       C92          C  0.3874820  0.4326230 -0.1426980    0.00000       Uiso       1.00
       C93          C  0.3489180  0.4307460 -0.3065960    0.00000       Uiso       1.00
       C94          C  0.3235290  0.3991430 -0.2808580    0.00000       Uiso       1.00
       C95          C  0.3361500  0.3677210 -0.0971840    0.00000       Uiso       1.00
       C96          C  0.3745560  0.3689920  0.0656430    0.00000       Uiso       1.00
       C97          C  0.3991890  0.4011390  0.0477930    0.00000       Uiso       1.00
       H98          H  0.4645350  0.4079690 -0.3215530    0.00000       Uiso       1.00
       H99          H  0.3388300  0.4524980 -0.4497830    0.00000       Uiso       1.00
      H100          H  0.2957840  0.3991420 -0.4006960    0.00000       Uiso       1.00
      H101          H  0.3848380  0.3469170  0.2026870    0.00000       Uiso       1.00
      H102          H  0.4259580  0.4012770  0.1790980    0.00000       Uiso       1.00
      C103          C  0.2183410  0.2223250  0.0038540    0.00000       Uiso       1.00
      C104          C  0.2123260  0.2582870 -0.1323300    0.00000       Uiso       1.00
      C105          C  0.2433930  0.2854860 -0.1172960    0.00000       Uiso       1.00
      C106          C  0.2816580  0.2776740  0.0344690    0.00000       Uiso       1.00
      C107          C  0.2876730  0.2417120  0.1706520    0.00000       Uiso       1.00
      C108          C  0.2566070  0.2145130  0.1556140    0.00000       Uiso       1.00
      H109          H  0.1851360  0.2651240 -0.2448020    0.00000       Uiso       1.00
      H110          H  0.2376030  0.3110970 -0.2192450    0.00000       Uiso       1.00
      H111          H  0.3148630  0.2348760  0.2831270    0.00000       Uiso       1.00
      H112          H  0.2623970  0.1889020  0.2575600    0.00000       Uiso       1.00
      C113          C  0.1866490  0.1956420 -0.0152290    0.00000       Uiso       1.00
      N114          N  0.1900700  0.1616030  0.1272660    0.00000       Uiso       1.00
      H115          H  0.8397020  0.7976480 -0.1398640    0.00000       Uiso       1.00
      C116          C  0.9557600  0.9656541  0.2549950    0.00000       Uiso       1.00
      C117          C  0.0214340  0.9328810  0.3163730    0.00000       Uiso       1.00
      C118          C  0.0876050  0.9652520  0.2024320    0.00000       Uiso       1.00
      C119          C  0.1125180  0.9326220  0.1810870    0.00000       Uiso       1.00
      C120          C  0.1510830  0.9307450  0.3449780    0.00000       Uiso       1.00
      C121          C  0.1764720  0.8991430  0.3192250    0.00000       Uiso       1.00
      C122          C  0.1638500  0.8677210  0.1355410    0.00000       Uiso       1.00
      C123          C  0.1254440  0.8689920 -0.0272760    0.00000       Uiso       1.00
      C124          C  0.1008110  0.9011391 -0.0094110    0.00000       Uiso       1.00
      H125          H  0.0354650  0.9079691  0.3599430    0.00000       Uiso       1.00
      H126          H  0.1611710  0.9524959  0.4881720    0.00000       Uiso       1.00
      H127          H  0.2042170  0.8991410  0.4390570    0.00000       Uiso       1.00
      H128          H  0.1151610  0.8469180 -0.1643250    0.00000       Uiso       1.00
      H129          H  0.0740410  0.9012780 -0.1407110    0.00000       Uiso       1.00
      C130          C  0.3133500  0.6956420  0.0535600    0.00000       Uiso       1.00
      N131          N  0.3099300  0.6616030 -0.0889290    0.00000       Uiso       1.00
      H132          H  0.6603010  0.2976470  0.1782030    0.00000       Uiso       1.00
      C133          C  0.4557600  0.5343460 -0.2165970    0.00000       Uiso       1.00
      C134          C  0.5214350  0.5671190 -0.2779790    0.00000       Uiso       1.00
      C135          C  0.5876050  0.5347470 -0.1640350    0.00000       Uiso       1.00
      C136          C  0.6125190  0.5673770 -0.1426980    0.00000       Uiso       1.00
      C137          C  0.6510830  0.5692540 -0.3065960    0.00000       Uiso       1.00
      C138          C  0.6764720  0.6008560 -0.2808580    0.00000       Uiso       1.00
      C139          C  0.6638510  0.6322780 -0.0971840    0.00000       Uiso       1.00
      C140          C  0.6254450  0.6310080  0.0656430    0.00000       Uiso       1.00
      C141          C  0.6008120  0.5988610  0.0477930    0.00000       Uiso       1.00
      H142          H  0.5354650  0.5920310 -0.3215530    0.00000       Uiso       1.00
      H143          H  0.6611710  0.5475020 -0.4497830    0.00000       Uiso       1.00
      H144          H  0.7042160  0.6008580 -0.4006960    0.00000       Uiso       1.00
      H145          H  0.6151630  0.6530820  0.2026870    0.00000       Uiso       1.00
      H146          H  0.5740430  0.5987230  0.1790980    0.00000       Uiso       1.00
      C147          C  0.7816600  0.7776740  0.0038540    0.00000       Uiso       1.00
      C148          C  0.7876750  0.7417130 -0.1323300    0.00000       Uiso       1.00
      C149          C  0.7566080  0.7145130 -0.1172960    0.00000       Uiso       1.00
      C150          C  0.7183420  0.7223260  0.0344690    0.00000       Uiso       1.00
      C151          C  0.7123270  0.7582880  0.1706520    0.00000       Uiso       1.00
      C152          C  0.7433940  0.7854870  0.1556140    0.00000       Uiso       1.00
      H153          H  0.8148640  0.7348760 -0.2448020    0.00000       Uiso       1.00
      H154          H  0.7623980  0.6889030 -0.2192450    0.00000       Uiso       1.00
      H155          H  0.6851380  0.7651240  0.2831270    0.00000       Uiso       1.00
      H156          H  0.7376040  0.8110980  0.2575600    0.00000       Uiso       1.00
      C157          C  0.8133520  0.8043580 -0.0152290    0.00000       Uiso       1.00
      N158          N  0.8099300  0.8383960  0.1272660    0.00000       Uiso       1.00
      H159          H  0.1602990  0.2023520 -0.1398640    0.00000       Uiso       1.00
      C160          C  0.0442400  0.0343460  0.2549950    0.00000       Uiso       1.00
      C161          C  0.9785660  0.0671190  0.3163730    0.00000       Uiso       1.00
      C162          C  0.9123960  0.0347470  0.2024320    0.00000       Uiso       1.00
      C163          C  0.8874820  0.0673770  0.1810870    0.00000       Uiso       1.00
      C164          C  0.8489180  0.0692540  0.3449780    0.00000       Uiso       1.00
      C165          C  0.8235290  0.1008570  0.3192250    0.00000       Uiso       1.00
      C166          C  0.8361510  0.1322780  0.1355410    0.00000       Uiso       1.00
      C167          C  0.8745570  0.1310070 -0.0272760    0.00000       Uiso       1.00
      C168          C  0.8991900  0.0988600 -0.0094110    0.00000       Uiso       1.00
      H169          H  0.9645360  0.0920310  0.3599430    0.00000       Uiso       1.00
      H170          H  0.8388290  0.0475030  0.4881720    0.00000       Uiso       1.00
      H171          H  0.7957840  0.1008590  0.4390570    0.00000       Uiso       1.00
      H172          H  0.8848400  0.1530810 -0.1643250    0.00000       Uiso       1.00
      H173          H  0.9259590  0.0987220 -0.1407110    0.00000       Uiso       1.00
      C174          C  0.6866500  0.3043580  0.0535600    0.00000       Uiso       1.00
      N175          N  0.6900710  0.3383960 -0.0889290    0.00000       Uiso       1.00
      H176          H  0.3396990  0.7023530  0.1782030    0.00000       Uiso       1.00
      C177          C  0.3925640  0.5000000 -0.1224820    0.00000       Uiso       1.00
      C178          C  0.5220630  0.5000000 -0.2151350    0.00000       Uiso       1.00
      H179          H  0.3620610  0.5000000 -0.0591050    0.00000       Uiso       1.00
      C180          C  0.6074360  0.5000000 -0.1224820    0.00000       Uiso       1.00
      C181          C  0.4779380  0.5000000 -0.2151350    0.00000       Uiso       1.00
      H182          H  0.6379400  0.5000000 -0.0591050    0.00000       Uiso       1.00
      C183          C  0.1074360  0.0000000  0.1608830    0.00000       Uiso       1.00
      C184          C  0.9779380  0.0000000  0.2535340    0.00000       Uiso       1.00
      H185          H  0.1379400  0.0000000  0.0975080    0.00000       Uiso       1.00
      C186          C  0.8925640  0.0000000  0.1608830    0.00000       Uiso       1.00
      C187          C  0.0220620  0.0000000  0.2535340    0.00000       Uiso       1.00
      H188          H  0.8620610  0.0000000  0.0975080    0.00000       Uiso       1.00
