data_Py-23-BPYPH_COF
_audit_creation_date              0000-00-00
_audit_creation_method            'LanYouShi'
_symmetry_space_group_name_H-M    'P1'
_cell_length_a                    37.8005981
_cell_length_b                    43.2644997
_cell_length_c                    3.9593000
_cell_angle_alpha                 90.0000000
_cell_angle_beta                  90.0000000
_cell_angle_gamma                 90.0000000
loop_
_atom_site_label
_atom_site_type_symbol
_atom_site_fract_x
_atom_site_fract_y
_atom_site_fract_z
_atom_site_U_iso_or_equiv
_atom_site_adp_type
_atom_site_occupancy
        C1          C  0.9674299  0.4666850  0.4638890    0.00000       Uiso       1.00
        C2          C  0.4674310  0.9666850  0.4638890    0.00000       Uiso       1.00
        C3          C  0.0325970  0.5333150  0.4638890    0.00000       Uiso       1.00
        C4          C  0.5325970  0.0333150  0.4638890    0.00000       Uiso       1.00
        C5          C  0.9674299  0.5333150  0.4638890    0.00000       Uiso       1.00
        C6          C  0.4674310  0.0333150  0.4638890    0.00000       Uiso       1.00
        C7          C  0.0325970  0.4666850  0.4638890    0.00000       Uiso       1.00
        C8          C  0.5325970  0.9666850  0.4638890    0.00000       Uiso       1.00
        C9          C  0.9363420  0.5161450  0.4014310    0.00000       Uiso       1.00
       C10          C  0.4363420  0.0161450  0.4014310    0.00000       Uiso       1.00
       C11          C  0.0636860  0.4838550  0.4014310    0.00000       Uiso       1.00
       C12          C  0.5636850  0.9838550  0.4014310    0.00000       Uiso       1.00
       C13          C  0.9363420  0.4838550  0.4014310    0.00000       Uiso       1.00
       C14          C  0.4363420  0.9838550  0.4014310    0.00000       Uiso       1.00
       C15          C  0.0636860  0.5161450  0.4014310    0.00000       Uiso       1.00
       C16          C  0.5636850  0.0161450  0.4014310    0.00000       Uiso       1.00
       C17          C  0.9670429  0.5659840  0.5162790    0.00000       Uiso       1.00
       C18          C  0.4670430  0.0659840  0.5162790    0.00000       Uiso       1.00
       C19          C  0.0329850  0.4340160  0.5162790    0.00000       Uiso       1.00
       C20          C  0.5329840  0.9340159  0.5162790    0.00000       Uiso       1.00
       C21          C  0.9670429  0.4340160  0.5162790    0.00000       Uiso       1.00
       C22          C  0.4670430  0.9340159  0.5162790    0.00000       Uiso       1.00
       C23          C  0.0329850  0.5659840  0.5162790    0.00000       Uiso       1.00
       C24          C  0.5329840  0.0659840  0.5162790    0.00000       Uiso       1.00
       C25          C  0.9361399  0.5848640  0.5343520    0.00000       Uiso       1.00
       C26          C  0.4361410  0.0848640  0.5343520    0.00000       Uiso       1.00
       C27          C  0.0638870  0.4151350  0.5343520    0.00000       Uiso       1.00
       C28          C  0.5638860  0.9151350  0.5343520    0.00000       Uiso       1.00
       C29          C  0.9361399  0.4151350  0.5343520    0.00000       Uiso       1.00
       C30          C  0.4361410  0.9151350  0.5343520    0.00000       Uiso       1.00
       C31          C  0.0638870  0.5848640  0.5343520    0.00000       Uiso       1.00
       C32          C  0.5638860  0.0848640  0.5343520    0.00000       Uiso       1.00
       C33          C  0.9059170  0.5762140  0.7230970    0.00000       Uiso       1.00
       C34          C  0.4059180  0.0762140  0.7230970    0.00000       Uiso       1.00
       C35          C  0.0941100  0.4237850  0.7230970    0.00000       Uiso       1.00
       C36          C  0.5941100  0.9237850  0.7230970    0.00000       Uiso       1.00
       C37          C  0.9059170  0.4237850  0.7230970    0.00000       Uiso       1.00
       C38          C  0.4059180  0.9237850  0.7230970    0.00000       Uiso       1.00
       C39          C  0.0941100  0.5762140  0.7230970    0.00000       Uiso       1.00
       C40          C  0.5941100  0.0762140  0.7230970    0.00000       Uiso       1.00
       C41          C  0.8754610  0.5948780  0.7363960    0.00000       Uiso       1.00
       C42          C  0.3754620  0.0948780  0.7363960    0.00000       Uiso       1.00
       C43          C  0.1245670  0.4051210  0.7363960    0.00000       Uiso       1.00
       C44          C  0.6245660  0.9051210  0.7363960    0.00000       Uiso       1.00
       C45          C  0.8754610  0.4051210  0.7363960    0.00000       Uiso       1.00
       C46          C  0.3754620  0.9051210  0.7363960    0.00000       Uiso       1.00
       C47          C  0.1245670  0.5948780  0.7363960    0.00000       Uiso       1.00
       C48          C  0.6245660  0.0948780  0.7363960    0.00000       Uiso       1.00
       C49          C  0.8745010  0.6238740  0.5723470    0.00000       Uiso       1.00
       C50          C  0.3745020  0.1238740  0.5723470    0.00000       Uiso       1.00
       C51          C  0.1255260  0.3761250  0.5723470    0.00000       Uiso       1.00
       C52          C  0.6255260  0.8761250  0.5723470    0.00000       Uiso       1.00
       C53          C  0.8745010  0.3761250  0.5723470    0.00000       Uiso       1.00
       C54          C  0.3745020  0.8761250  0.5723470    0.00000       Uiso       1.00
       C55          C  0.1255260  0.6238740  0.5723470    0.00000       Uiso       1.00
       C56          C  0.6255260  0.1238740  0.5723470    0.00000       Uiso       1.00
       C57          C  0.9048399  0.6331810  0.3901110    0.00000       Uiso       1.00
       C58          C  0.4048410  0.1331810  0.3901110    0.00000       Uiso       1.00
       C59          C  0.0951870  0.3668190  0.3901110    0.00000       Uiso       1.00
       C60          C  0.5951870  0.8668190  0.3901110    0.00000       Uiso       1.00
       C61          C  0.9048399  0.3668190  0.3901110    0.00000       Uiso       1.00
       C62          C  0.4048410  0.8668190  0.3901110    0.00000       Uiso       1.00
       C63          C  0.0951870  0.6331810  0.3901110    0.00000       Uiso       1.00
       C64          C  0.5951870  0.1331810  0.3901110    0.00000       Uiso       1.00
       C65          C  0.9347450  0.6139020  0.3680460    0.00000       Uiso       1.00
       C66          C  0.4347450  0.1139020  0.3680460    0.00000       Uiso       1.00
       C67          C  0.0652830  0.3860980  0.3680460    0.00000       Uiso       1.00
       C68          C  0.5652820  0.8860980  0.3680460    0.00000       Uiso       1.00
       C69          C  0.9347450  0.3860980  0.3680460    0.00000       Uiso       1.00
       C70          C  0.4347450  0.8860980  0.3680460    0.00000       Uiso       1.00
       C71          C  0.0652830  0.6139020  0.3680460    0.00000       Uiso       1.00
       C72          C  0.5652820  0.1139020  0.3680460    0.00000       Uiso       1.00
       C73          C  0.8440180  0.6425350  0.5944340    0.00000       Uiso       1.00
       C74          C  0.3440190  0.1425350  0.5944340    0.00000       Uiso       1.00
       C75          C  0.1560090  0.3574650  0.5944340    0.00000       Uiso       1.00
       C76          C  0.6560080  0.8574650  0.5944340    0.00000       Uiso       1.00
       C77          C  0.8440180  0.3574650  0.5944340    0.00000       Uiso       1.00
       C78          C  0.3440190  0.8574650  0.5944340    0.00000       Uiso       1.00
       C79          C  0.1560090  0.6425350  0.5944340    0.00000       Uiso       1.00
       C80          C  0.6560080  0.1425350  0.5944340    0.00000       Uiso       1.00
       H81          H  0.9127850  0.5267930  0.3565300    0.00000       Uiso       1.00
       H82          H  0.4127860  0.0267930  0.3565300    0.00000       Uiso       1.00
       H83          H  0.0872420  0.4732060  0.3565300    0.00000       Uiso       1.00
       H84          H  0.5872420  0.9732060  0.3565300    0.00000       Uiso       1.00
       H85          H  0.9127850  0.4732060  0.3565300    0.00000       Uiso       1.00
       H86          H  0.4127860  0.9732060  0.3565300    0.00000       Uiso       1.00
       H87          H  0.0872420  0.5267930  0.3565300    0.00000       Uiso       1.00
       H88          H  0.5872420  0.0267930  0.3565300    0.00000       Uiso       1.00
       H89          H  0.9058970  0.5561370  0.8575060    0.00000       Uiso       1.00
       H90          H  0.4058980  0.0561370  0.8575060    0.00000       Uiso       1.00
       H91          H  0.0941300  0.4438630  0.8575060    0.00000       Uiso       1.00
       H92          H  0.5941290  0.9438630  0.8575060    0.00000       Uiso       1.00
       H93          H  0.9058970  0.4438630  0.8575060    0.00000       Uiso       1.00
       H94          H  0.4058980  0.9438630  0.8575060    0.00000       Uiso       1.00
       H95          H  0.0941300  0.5561370  0.8575060    0.00000       Uiso       1.00
       H96          H  0.5941290  0.0561370  0.8575060    0.00000       Uiso       1.00
       H97          H  0.8541720  0.5872890  0.8730700    0.00000       Uiso       1.00
       H98          H  0.3541730  0.0872890  0.8730700    0.00000       Uiso       1.00
       H99          H  0.1458550  0.4127110  0.8730700    0.00000       Uiso       1.00
      H100          H  0.6458550  0.9127111  0.8730700    0.00000       Uiso       1.00
      H101          H  0.8541720  0.4127110  0.8730700    0.00000       Uiso       1.00
      H102          H  0.3541730  0.9127111  0.8730700    0.00000       Uiso       1.00
      H103          H  0.1458550  0.5872890  0.8730700    0.00000       Uiso       1.00
      H104          H  0.6458550  0.0872890  0.8730700    0.00000       Uiso       1.00
      H105          H  0.9051960  0.6539970  0.2671870    0.00000       Uiso       1.00
      H106          H  0.4051970  0.1539970  0.2671870    0.00000       Uiso       1.00
      H107          H  0.0948310  0.3460030  0.2671870    0.00000       Uiso       1.00
      H108          H  0.5948310  0.8460031  0.2671870    0.00000       Uiso       1.00
      H109          H  0.9051960  0.3460030  0.2671870    0.00000       Uiso       1.00
      H110          H  0.4051970  0.8460031  0.2671870    0.00000       Uiso       1.00
      H111          H  0.0948310  0.6539970  0.2671870    0.00000       Uiso       1.00
      H112          H  0.5948310  0.1539970  0.2671870    0.00000       Uiso       1.00
      H113          H  0.9555850  0.6212870  0.2241960    0.00000       Uiso       1.00
      H114          H  0.4555850  0.1212870  0.2241960    0.00000       Uiso       1.00
      H115          H  0.0444430  0.3787120  0.2241960    0.00000       Uiso       1.00
      H116          H  0.5444420  0.8787121  0.2241960    0.00000       Uiso       1.00
      H117          H  0.9555850  0.3787120  0.2241960    0.00000       Uiso       1.00
      H118          H  0.4555850  0.8787121  0.2241960    0.00000       Uiso       1.00
      H119          H  0.0444430  0.6212870  0.2241960    0.00000       Uiso       1.00
      H120          H  0.5444420  0.1212870  0.2241960    0.00000       Uiso       1.00
      H121          H  0.8222930  0.6340430  0.7173660    0.00000       Uiso       1.00
      H122          H  0.3222930  0.1340430  0.7173660    0.00000       Uiso       1.00
      H123          H  0.1777350  0.3659570  0.7173660    0.00000       Uiso       1.00
      H124          H  0.6777340  0.8659570  0.7173660    0.00000       Uiso       1.00
      H125          H  0.8222930  0.3659570  0.7173660    0.00000       Uiso       1.00
      H126          H  0.3222930  0.8659570  0.7173660    0.00000       Uiso       1.00
      H127          H  0.1777350  0.6340430  0.7173660    0.00000       Uiso       1.00
      H128          H  0.6777340  0.1340430  0.7173660    0.00000       Uiso       1.00
      N129          N  0.8429420  0.6714330  0.4636110    0.00000       Uiso       1.00
      N130          N  0.3429430  0.1714330  0.4636110    0.00000       Uiso       1.00
      N131          N  0.1570850  0.3285670  0.4636110    0.00000       Uiso       1.00
      N132          N  0.6570840  0.8285670  0.4636110    0.00000       Uiso       1.00
      N133          N  0.8429420  0.3285670  0.4636110    0.00000       Uiso       1.00
      N134          N  0.3429430  0.8285670  0.4636110    0.00000       Uiso       1.00
      N135          N  0.1570850  0.6714330  0.4636110    0.00000       Uiso       1.00
      N136          N  0.6570840  0.1714330  0.4636110    0.00000       Uiso       1.00
      C137          C  0.0000140  0.5808630  0.5598770    0.00000       Uiso       1.00
      C138          C  0.5000140  0.0808630  0.5598770    0.00000       Uiso       1.00
      C139          C  0.0000140  0.4191370  0.5598770    0.00000       Uiso       1.00
      C140          C  0.5000140  0.9191370  0.5598770    0.00000       Uiso       1.00
      C141          C  0.0000140  0.4833900  0.4659580    0.00000       Uiso       1.00
      C142          C  0.5000140  0.9833900  0.4659580    0.00000       Uiso       1.00
      C143          C  0.0000140  0.5166100  0.4659580    0.00000       Uiso       1.00
      C144          C  0.5000140  0.0166100  0.4659580    0.00000       Uiso       1.00
      H145          H  0.0000140  0.6037700  0.6259750    0.00000       Uiso       1.00
      H146          H  0.5000140  0.1037700  0.6259750    0.00000       Uiso       1.00
      H147          H  0.0000140  0.3962300  0.6259750    0.00000       Uiso       1.00
      H148          H  0.5000140  0.8962300  0.6259750    0.00000       Uiso       1.00
      C149          C  0.1837370  0.3076450  0.4542830    0.00000       Uiso       1.00
      C150          C  0.1748870  0.2771460  0.3635350    0.00000       Uiso       1.00
      C151          C  0.2009410  0.2538860  0.3544740    0.00000       Uiso       1.00
      C152          C  0.2364840  0.2612420  0.4320020    0.00000       Uiso       1.00
      N153          N  0.2441930  0.2911530  0.5123370    0.00000       Uiso       1.00
      C154          C  0.2196040  0.3140120  0.5269270    0.00000       Uiso       1.00
      H155          H  0.1492560  0.2717870  0.3051570    0.00000       Uiso       1.00
      H156          H  0.1939980  0.2318100  0.2899430    0.00000       Uiso       1.00
      H157          H  0.2276290  0.3357290  0.5900830    0.00000       Uiso       1.00
      C158          C  0.6837360  0.8076450  0.4542830    0.00000       Uiso       1.00
      C159          C  0.6748870  0.7771460  0.3635350    0.00000       Uiso       1.00
      C160          C  0.7009410  0.7538860  0.3544740    0.00000       Uiso       1.00
      C161          C  0.7364840  0.7612420  0.4320020    0.00000       Uiso       1.00
      N162          N  0.7441930  0.7911530  0.5123370    0.00000       Uiso       1.00
      C163          C  0.7196040  0.8140121  0.5269270    0.00000       Uiso       1.00
      H164          H  0.6492550  0.7717870  0.3051570    0.00000       Uiso       1.00
      H165          H  0.6939980  0.7318100  0.2899430    0.00000       Uiso       1.00
      H166          H  0.7276280  0.8357290  0.5900830    0.00000       Uiso       1.00
      C167          C  0.8162910  0.6923550  0.4542830    0.00000       Uiso       1.00
      C168          C  0.8251400  0.7228530  0.3635350    0.00000       Uiso       1.00
      C169          C  0.7990860  0.7461130  0.3544740    0.00000       Uiso       1.00
      C170          C  0.7635430  0.7387580  0.4320020    0.00000       Uiso       1.00
      N171          N  0.7558340  0.7088470  0.5123370    0.00000       Uiso       1.00
      C172          C  0.7804230  0.6859880  0.5269270    0.00000       Uiso       1.00
      H173          H  0.8507720  0.7282130  0.3051570    0.00000       Uiso       1.00
      H174          H  0.8060290  0.7681890  0.2899430    0.00000       Uiso       1.00
      H175          H  0.7723990  0.6642700  0.5900830    0.00000       Uiso       1.00
      C176          C  0.3162910  0.1923550  0.4542830    0.00000       Uiso       1.00
      C177          C  0.3251410  0.2228540  0.3635350    0.00000       Uiso       1.00
      C178          C  0.2990870  0.2461130  0.3544740    0.00000       Uiso       1.00
      C179          C  0.2635440  0.2387580  0.4320020    0.00000       Uiso       1.00
      N180          N  0.2558350  0.2088460  0.5123370    0.00000       Uiso       1.00
      C181          C  0.2804240  0.1859880  0.5269270    0.00000       Uiso       1.00
      H182          H  0.3507720  0.2282130  0.3051570    0.00000       Uiso       1.00
      H183          H  0.3060300  0.2681890  0.2899430    0.00000       Uiso       1.00
      H184          H  0.2723990  0.1642700  0.5900830    0.00000       Uiso       1.00
      C185          C  0.1837370  0.6923550  0.4542830    0.00000       Uiso       1.00
      C186          C  0.1748870  0.7228530  0.3635350    0.00000       Uiso       1.00
      C187          C  0.2009410  0.7461130  0.3544740    0.00000       Uiso       1.00
      C188          C  0.2364840  0.7387580  0.4320020    0.00000       Uiso       1.00
      N189          N  0.2441930  0.7088470  0.5123370    0.00000       Uiso       1.00
      C190          C  0.2196040  0.6859880  0.5269270    0.00000       Uiso       1.00
      H191          H  0.1492560  0.7282130  0.3051570    0.00000       Uiso       1.00
      H192          H  0.1939980  0.7681890  0.2899430    0.00000       Uiso       1.00
      H193          H  0.2276290  0.6642700  0.5900830    0.00000       Uiso       1.00
      C194          C  0.6837360  0.1923550  0.4542830    0.00000       Uiso       1.00
      C195          C  0.6748870  0.2228540  0.3635350    0.00000       Uiso       1.00
      C196          C  0.7009410  0.2461130  0.3544740    0.00000       Uiso       1.00
      C197          C  0.7364840  0.2387580  0.4320020    0.00000       Uiso       1.00
      N198          N  0.7441930  0.2088460  0.5123370    0.00000       Uiso       1.00
      C199          C  0.7196040  0.1859880  0.5269270    0.00000       Uiso       1.00
      H200          H  0.6492550  0.2282130  0.3051570    0.00000       Uiso       1.00
      H201          H  0.6939980  0.2681890  0.2899430    0.00000       Uiso       1.00
      H202          H  0.7276280  0.1642700  0.5900830    0.00000       Uiso       1.00
      C203          C  0.8162910  0.3076450  0.4542830    0.00000       Uiso       1.00
      C204          C  0.8251400  0.2771460  0.3635350    0.00000       Uiso       1.00
      C205          C  0.7990860  0.2538860  0.3544740    0.00000       Uiso       1.00
      C206          C  0.7635430  0.2612420  0.4320020    0.00000       Uiso       1.00
      N207          N  0.7558340  0.2911530  0.5123370    0.00000       Uiso       1.00
      C208          C  0.7804230  0.3140120  0.5269270    0.00000       Uiso       1.00
      H209          H  0.8507720  0.2717870  0.3051570    0.00000       Uiso       1.00
      H210          H  0.8060290  0.2318100  0.2899430    0.00000       Uiso       1.00
      H211          H  0.7723990  0.3357290  0.5900830    0.00000       Uiso       1.00
      C212          C  0.3162910  0.8076450  0.4542830    0.00000       Uiso       1.00
      C213          C  0.3251410  0.7771460  0.3635350    0.00000       Uiso       1.00
      C214          C  0.2990870  0.7538860  0.3544740    0.00000       Uiso       1.00
      C215          C  0.2635440  0.7612420  0.4320020    0.00000       Uiso       1.00
      N216          N  0.2558350  0.7911530  0.5123370    0.00000       Uiso       1.00
      C217          C  0.2804240  0.8140121  0.5269270    0.00000       Uiso       1.00
      H218          H  0.3507720  0.7717870  0.3051570    0.00000       Uiso       1.00
      H219          H  0.3060300  0.7318100  0.2899430    0.00000       Uiso       1.00
      H220          H  0.2723990  0.8357290  0.5900830    0.00000       Uiso       1.00
