data_Py-23-DHPh_COF
_audit_creation_date              0000-00-00
_audit_creation_method            'LanYouShi'
_symmetry_space_group_name_H-M    'P1'
_cell_length_a                    33.2472992
_cell_length_b                    35.5954018
_cell_length_c                    7.4145999
_cell_angle_alpha                 90.0000000
_cell_angle_beta                  90.0000000
_cell_angle_gamma                 90.0000000
loop_
_atom_site_label
_atom_site_type_symbol
_atom_site_fract_x
_atom_site_fract_y
_atom_site_fract_z
_atom_site_U_iso_or_equiv
_atom_site_adp_type
_atom_site_occupancy
        C1          C  0.4628920  0.9597060 -0.0453170    0.00000       Uiso       1.00
        C2          C  0.9628930  0.4597060 -0.0453170    0.00000       Uiso       1.00
        C3          C  0.5371090  0.0402940 -0.0453170    0.00000       Uiso       1.00
        C4          C  0.0371090  0.5402930 -0.0453170    0.00000       Uiso       1.00
        C5          C  0.4628920  0.0402940 -0.0453170    0.00000       Uiso       1.00
        C6          C  0.9628930  0.5402930 -0.0453170    0.00000       Uiso       1.00
        C7          C  0.5371090  0.9597060 -0.0453170    0.00000       Uiso       1.00
        C8          C  0.0371090  0.4597060 -0.0453170    0.00000       Uiso       1.00
        C9          C  0.4266360  0.0196450 -0.0540560    0.00000       Uiso       1.00
       C10          C  0.9266370  0.5196450 -0.0540560    0.00000       Uiso       1.00
       C11          C  0.5733650  0.9803550 -0.0540560    0.00000       Uiso       1.00
       C12          C  0.0733640  0.4803550 -0.0540560    0.00000       Uiso       1.00
       C13          C  0.4266360  0.9803550 -0.0540560    0.00000       Uiso       1.00
       C14          C  0.9266370  0.4803550 -0.0540560    0.00000       Uiso       1.00
       C15          C  0.5733650  0.0196450 -0.0540560    0.00000       Uiso       1.00
       C16          C  0.0733640  0.5196450 -0.0540560    0.00000       Uiso       1.00
       C17          C  0.4629980  0.0802210 -0.0347880    0.00000       Uiso       1.00
       C18          C  0.9629990  0.5802210 -0.0347880    0.00000       Uiso       1.00
       C19          C  0.5370030  0.9197790 -0.0347880    0.00000       Uiso       1.00
       C20          C  0.0370030  0.4197790 -0.0347880    0.00000       Uiso       1.00
       C21          C  0.4629980  0.9197790 -0.0347880    0.00000       Uiso       1.00
       C22          C  0.9629990  0.4197790 -0.0347880    0.00000       Uiso       1.00
       C23          C  0.5370030  0.0802210 -0.0347880    0.00000       Uiso       1.00
       C24          C  0.0370030  0.5802210 -0.0347880    0.00000       Uiso       1.00
       C25          C  0.4277860  0.1020320 -0.0149790    0.00000       Uiso       1.00
       C26          C  0.9277870  0.6020320 -0.0149790    0.00000       Uiso       1.00
       C27          C  0.5722150  0.8979680 -0.0149790    0.00000       Uiso       1.00
       C28          C  0.0722150  0.3979680 -0.0149790    0.00000       Uiso       1.00
       C29          C  0.4277860  0.8979680 -0.0149790    0.00000       Uiso       1.00
       C30          C  0.9277870  0.3979680 -0.0149790    0.00000       Uiso       1.00
       C31          C  0.5722150  0.1020320 -0.0149790    0.00000       Uiso       1.00
       C32          C  0.0722150  0.6020320 -0.0149790    0.00000       Uiso       1.00
       C33          C  0.4054720  0.0998900  0.1467990    0.00000       Uiso       1.00
       C34          C  0.9054730  0.5998900  0.1467990    0.00000       Uiso       1.00
       C35          C  0.5945300  0.9001099  0.1467990    0.00000       Uiso       1.00
       C36          C  0.0945290  0.4001100  0.1467990    0.00000       Uiso       1.00
       C37          C  0.4054720  0.9001099  0.1467990    0.00000       Uiso       1.00
       C38          C  0.9054730  0.4001100  0.1467990    0.00000       Uiso       1.00
       C39          C  0.5945300  0.0998900  0.1467990    0.00000       Uiso       1.00
       C40          C  0.0945290  0.5998900  0.1467990    0.00000       Uiso       1.00
       C41          C  0.3710440  0.1221910  0.1716770    0.00000       Uiso       1.00
       C42          C  0.8710450  0.6221910  0.1716770    0.00000       Uiso       1.00
       C43          C  0.6289580  0.8778090  0.1716770    0.00000       Uiso       1.00
       C44          C  0.1289570  0.3778090  0.1716770    0.00000       Uiso       1.00
       C45          C  0.3710440  0.8778090  0.1716770    0.00000       Uiso       1.00
       C46          C  0.8710450  0.3778090  0.1716770    0.00000       Uiso       1.00
       C47          C  0.6289580  0.1221910  0.1716770    0.00000       Uiso       1.00
       C48          C  0.1289570  0.6221910  0.1716770    0.00000       Uiso       1.00
       C49          C  0.3580170  0.1474740  0.0363830    0.00000       Uiso       1.00
       C50          C  0.8580180  0.6474740  0.0363830    0.00000       Uiso       1.00
       C51          C  0.6419840  0.8525260  0.0363830    0.00000       Uiso       1.00
       C52          C  0.1419840  0.3525260  0.0363830    0.00000       Uiso       1.00
       C53          C  0.3580170  0.8525260  0.0363830    0.00000       Uiso       1.00
       C54          C  0.8580180  0.3525260  0.0363830    0.00000       Uiso       1.00
       C55          C  0.6419840  0.1474740  0.0363830    0.00000       Uiso       1.00
       C56          C  0.1419840  0.6474740  0.0363830    0.00000       Uiso       1.00
       C57          C  0.3803300  0.1492870 -0.1261970    0.00000       Uiso       1.00
       C58          C  0.8803310  0.6492870 -0.1261970    0.00000       Uiso       1.00
       C59          C  0.6196720  0.8507130 -0.1261970    0.00000       Uiso       1.00
       C60          C  0.1196710  0.3507130 -0.1261970    0.00000       Uiso       1.00
       C61          C  0.3803300  0.8507130 -0.1261970    0.00000       Uiso       1.00
       C62          C  0.8803310  0.3507130 -0.1261970    0.00000       Uiso       1.00
       C63          C  0.6196720  0.1492870 -0.1261970    0.00000       Uiso       1.00
       C64          C  0.1196710  0.6492870 -0.1261970    0.00000       Uiso       1.00
       C65          C  0.4147730  0.1268680 -0.1516510    0.00000       Uiso       1.00
       C66          C  0.9147740  0.6268670 -0.1516510    0.00000       Uiso       1.00
       C67          C  0.5852280  0.8731320 -0.1516510    0.00000       Uiso       1.00
       C68          C  0.0852270  0.3731320 -0.1516510    0.00000       Uiso       1.00
       C69          C  0.4147730  0.8731320 -0.1516510    0.00000       Uiso       1.00
       C70          C  0.9147740  0.3731320 -0.1516510    0.00000       Uiso       1.00
       C71          C  0.5852280  0.1268680 -0.1516510    0.00000       Uiso       1.00
       C72          C  0.0852270  0.6268670 -0.1516510    0.00000       Uiso       1.00
       C73          C  0.3239730  0.1700830  0.0687860    0.00000       Uiso       1.00
       C74          C  0.8239730  0.6700830  0.0687860    0.00000       Uiso       1.00
       C75          C  0.6760290  0.8299170  0.0687860    0.00000       Uiso       1.00
       C76          C  0.1760280  0.3299170  0.0687860    0.00000       Uiso       1.00
       C77          C  0.3239730  0.8299170  0.0687860    0.00000       Uiso       1.00
       C78          C  0.8239730  0.3299170  0.0687860    0.00000       Uiso       1.00
       C79          C  0.6760290  0.1700830  0.0687860    0.00000       Uiso       1.00
       C80          C  0.1760280  0.6700830  0.0687860    0.00000       Uiso       1.00
       C81          C  0.7814610  0.2773100 -0.0322010    0.00000       Uiso       1.00
       C82          C  0.2814600  0.7773100 -0.0322010    0.00000       Uiso       1.00
       C83          C  0.2185410  0.7226890 -0.0322010    0.00000       Uiso       1.00
       C84          C  0.7185420  0.2226900 -0.0322010    0.00000       Uiso       1.00
       C85          C  0.7814610  0.7226890 -0.0322010    0.00000       Uiso       1.00
       C86          C  0.2814600  0.2226900 -0.0322010    0.00000       Uiso       1.00
       C87          C  0.2185410  0.2773100 -0.0322010    0.00000       Uiso       1.00
       C88          C  0.7185420  0.7773100 -0.0322010    0.00000       Uiso       1.00
       C89          C  0.7655530  0.2633820 -0.1951750    0.00000       Uiso       1.00
       C90          C  0.2655530  0.7633820 -0.1951750    0.00000       Uiso       1.00
       C91          C  0.2344480  0.7366180 -0.1951750    0.00000       Uiso       1.00
       C92          C  0.7344490  0.2366180 -0.1951750    0.00000       Uiso       1.00
       C93          C  0.7655530  0.7366180 -0.1951750    0.00000       Uiso       1.00
       C94          C  0.2655530  0.2366180 -0.1951750    0.00000       Uiso       1.00
       C95          C  0.2344480  0.2633820 -0.1951750    0.00000       Uiso       1.00
       C96          C  0.7344490  0.7633820 -0.1951750    0.00000       Uiso       1.00
       C97          C  0.7341430  0.2367850  0.1324040    0.00000       Uiso       1.00
       C98          C  0.2341420  0.7367850  0.1324040    0.00000       Uiso       1.00
       C99          C  0.2658580  0.7632140  0.1324040    0.00000       Uiso       1.00
      C100          C  0.7658590  0.2632140  0.1324040    0.00000       Uiso       1.00
      C101          C  0.7341430  0.7632140  0.1324040    0.00000       Uiso       1.00
      C102          C  0.2341420  0.2632140  0.1324040    0.00000       Uiso       1.00
      C103          C  0.2658580  0.2367850  0.1324040    0.00000       Uiso       1.00
      C104          C  0.7658590  0.7367850  0.1324040    0.00000       Uiso       1.00
      H105          H  0.3993800  0.0328860 -0.0601770    0.00000       Uiso       1.00
      H106          H  0.8993810  0.5328860 -0.0601770    0.00000       Uiso       1.00
      H107          H  0.6006220  0.9671139 -0.0601770    0.00000       Uiso       1.00
      H108          H  0.1006210  0.4671140 -0.0601770    0.00000       Uiso       1.00
      H109          H  0.3993800  0.9671139 -0.0601770    0.00000       Uiso       1.00
      H110          H  0.8993810  0.4671140 -0.0601770    0.00000       Uiso       1.00
      H111          H  0.6006220  0.0328860 -0.0601770    0.00000       Uiso       1.00
      H112          H  0.1006210  0.5328860 -0.0601770    0.00000       Uiso       1.00
      H113          H  0.4142480  0.0822100  0.2484440    0.00000       Uiso       1.00
      H114          H  0.9142490  0.5822100  0.2484440    0.00000       Uiso       1.00
      H115          H  0.5857530  0.9177901  0.2484440    0.00000       Uiso       1.00
      H116          H  0.0857520  0.4177900  0.2484440    0.00000       Uiso       1.00
      H117          H  0.4142480  0.9177901  0.2484440    0.00000       Uiso       1.00
      H118          H  0.9142490  0.4177900  0.2484440    0.00000       Uiso       1.00
      H119          H  0.5857530  0.0822100  0.2484440    0.00000       Uiso       1.00
      H120          H  0.0857520  0.5822100  0.2484440    0.00000       Uiso       1.00
      H121          H  0.3557320  0.1198830  0.2910290    0.00000       Uiso       1.00
      H122          H  0.8557330  0.6198830  0.2910290    0.00000       Uiso       1.00
      H123          H  0.6442700  0.8801170  0.2910290    0.00000       Uiso       1.00
      H124          H  0.1442690  0.3801170  0.2910290    0.00000       Uiso       1.00
      H125          H  0.3557320  0.8801170  0.2910290    0.00000       Uiso       1.00
      H126          H  0.8557330  0.3801170  0.2910290    0.00000       Uiso       1.00
      H127          H  0.6442700  0.1198830  0.2910290    0.00000       Uiso       1.00
      H128          H  0.1442690  0.6198830  0.2910290    0.00000       Uiso       1.00
      H129          H  0.3718510  0.1670280 -0.2278850    0.00000       Uiso       1.00
      H130          H  0.8718520  0.6670280 -0.2278850    0.00000       Uiso       1.00
      H131          H  0.6281500  0.8329710 -0.2278850    0.00000       Uiso       1.00
      H132          H  0.1281490  0.3329720 -0.2278850    0.00000       Uiso       1.00
      H133          H  0.3718510  0.8329710 -0.2278850    0.00000       Uiso       1.00
      H134          H  0.8718520  0.3329720 -0.2278850    0.00000       Uiso       1.00
      H135          H  0.6281500  0.1670280 -0.2278850    0.00000       Uiso       1.00
      H136          H  0.1281490  0.6670280 -0.2278850    0.00000       Uiso       1.00
      H137          H  0.4303470  0.1288710 -0.2703830    0.00000       Uiso       1.00
      H138          H  0.9303470  0.6288710 -0.2703830    0.00000       Uiso       1.00
      H139          H  0.5696550  0.8711290 -0.2703830    0.00000       Uiso       1.00
      H140          H  0.0696540  0.3711290 -0.2703830    0.00000       Uiso       1.00
      H141          H  0.4303470  0.8711290 -0.2703830    0.00000       Uiso       1.00
      H142          H  0.9303470  0.3711290 -0.2703830    0.00000       Uiso       1.00
      H143          H  0.5696550  0.1288710 -0.2703830    0.00000       Uiso       1.00
      H144          H  0.0696540  0.6288710 -0.2703830    0.00000       Uiso       1.00
      H145          H  0.3081260  0.1658680  0.1851580    0.00000       Uiso       1.00
      H146          H  0.8081260  0.6658680  0.1851580    0.00000       Uiso       1.00
      H147          H  0.6918760  0.8341310  0.1851580    0.00000       Uiso       1.00
      H148          H  0.1918750  0.3341310  0.1851580    0.00000       Uiso       1.00
      H149          H  0.3081260  0.8341310  0.1851580    0.00000       Uiso       1.00
      H150          H  0.8081260  0.3341310  0.1851580    0.00000       Uiso       1.00
      H151          H  0.6918760  0.1658680  0.1851580    0.00000       Uiso       1.00
      H152          H  0.1918750  0.6658680  0.1851580    0.00000       Uiso       1.00
      H153          H  0.7764870  0.2728190 -0.3158570    0.00000       Uiso       1.00
      H154          H  0.2764860  0.7728190 -0.3158570    0.00000       Uiso       1.00
      H155          H  0.2235150  0.7271800 -0.3158570    0.00000       Uiso       1.00
      H156          H  0.7235150  0.2271810 -0.3158570    0.00000       Uiso       1.00
      H157          H  0.7764870  0.7271800 -0.3158570    0.00000       Uiso       1.00
      H158          H  0.2764860  0.2271810 -0.3158570    0.00000       Uiso       1.00
      H159          H  0.2235150  0.2728190 -0.3158570    0.00000       Uiso       1.00
      H160          H  0.7235150  0.7728190 -0.3158570    0.00000       Uiso       1.00
      O161          O  0.7184990  0.2258320  0.2925690    0.00000       Uiso       1.00
      O162          O  0.2184980  0.7258320  0.2925690    0.00000       Uiso       1.00
      O163          O  0.2815030  0.7741680  0.2925690    0.00000       Uiso       1.00
      O164          O  0.7815040  0.2741680  0.2925690    0.00000       Uiso       1.00
      O165          O  0.7184990  0.7741680  0.2925690    0.00000       Uiso       1.00
      O166          O  0.2184980  0.2741680  0.2925690    0.00000       Uiso       1.00
      O167          O  0.2815030  0.2258320  0.2925690    0.00000       Uiso       1.00
      O168          O  0.7815040  0.7258320  0.2925690    0.00000       Uiso       1.00
      N169          N  0.3113840  0.1969210 -0.0475310    0.00000       Uiso       1.00
      N170          N  0.8113840  0.6969200 -0.0475310    0.00000       Uiso       1.00
      N171          N  0.6886180  0.8030790 -0.0475310    0.00000       Uiso       1.00
      N172          N  0.1886170  0.3030790 -0.0475310    0.00000       Uiso       1.00
      N173          N  0.3113840  0.8030790 -0.0475310    0.00000       Uiso       1.00
      N174          N  0.8113840  0.3030790 -0.0475310    0.00000       Uiso       1.00
      N175          N  0.6886180  0.1969210 -0.0475310    0.00000       Uiso       1.00
      N176          N  0.1886170  0.6969200 -0.0475310    0.00000       Uiso       1.00
      C177          C  0.5000010  0.0995270 -0.0327740    0.00000       Uiso       1.00
      C178          C  0.0000000  0.5995270 -0.0327740    0.00000       Uiso       1.00
      C179          C  0.5000010  0.9004731 -0.0327740    0.00000       Uiso       1.00
      C180          C  0.0000000  0.4004730 -0.0327740    0.00000       Uiso       1.00
      C181          C  0.5000010  0.9798720 -0.0468780    0.00000       Uiso       1.00
      C182          C  0.0000000  0.4798720 -0.0468780    0.00000       Uiso       1.00
      C183          C  0.5000010  0.0201280 -0.0468780    0.00000       Uiso       1.00
      C184          C  0.0000000  0.5201270 -0.0468780    0.00000       Uiso       1.00
      H185          H  0.5000010  0.1283370 -0.0246120    0.00000       Uiso       1.00
      H186          H  0.0000000  0.6283370 -0.0246120    0.00000       Uiso       1.00
      H187          H  0.5000010  0.8716620 -0.0246120    0.00000       Uiso       1.00
      H188          H  0.0000000  0.3716620 -0.0246120    0.00000       Uiso       1.00
      H189          H  0.2711210  0.7640490  0.4060410    0.00000       Uiso       1.00
      H190          H  0.7711220  0.2640500  0.4060410    0.00000       Uiso       1.00
      H191          H  0.7288800  0.2359500  0.4060410    0.00000       Uiso       1.00
      H192          H  0.2288800  0.7359500  0.4060410    0.00000       Uiso       1.00
      H193          H  0.2711210  0.2359500  0.4060410    0.00000       Uiso       1.00
      H194          H  0.7711220  0.7359500  0.4060410    0.00000       Uiso       1.00
      H195          H  0.7288800  0.7640490  0.4060410    0.00000       Uiso       1.00
      H196          H  0.2288800  0.2640500  0.4060410    0.00000       Uiso       1.00
