data_Py-3PE-COF
_audit_creation_date              0000-00-00
_audit_creation_method            'LanYouShi'
_symmetry_space_group_name_H-M    'P1'
_cell_length_a                    48.8714981
_cell_length_b                    56.5419998
_cell_length_c                    3.9154999
_cell_angle_alpha                 90.1651001
_cell_angle_beta                  89.9432983
_cell_angle_gamma                 89.9203033
loop_
_atom_site_label
_atom_site_type_symbol
_atom_site_fract_x
_atom_site_fract_y
_atom_site_fract_z
_atom_site_U_iso_or_equiv
_atom_site_adp_type
_atom_site_occupancy
        C1          C  0.2791630  0.2720150  0.0566870    0.00000       Uiso       1.00
        C2          C  0.2353740  0.2926450 -0.0152140    0.00000       Uiso       1.00
        C3          C  0.1911640  0.2722590  0.1038150    0.00000       Uiso       1.00
        C4          C  0.1745110  0.2929860  0.1250150    0.00000       Uiso       1.00
        C5          C  0.1484190  0.2940970 -0.0340010    0.00000       Uiso       1.00
        C6          C  0.1318490  0.3144380 -0.0117710    0.00000       Uiso       1.00
        C7          C  0.1410210  0.3347840  0.1620140    0.00000       Uiso       1.00
        C8          C  0.1667860  0.3338930  0.3241970    0.00000       Uiso       1.00
        C9          C  0.1827680  0.3132510  0.3111640    0.00000       Uiso       1.00
       H10          H  0.2261140  0.3084030 -0.0637090    0.00000       Uiso       1.00
       H11          H  0.1411760  0.2800660 -0.1724140    0.00000       Uiso       1.00
       H12          H  0.1131210  0.3143990 -0.1286170    0.00000       Uiso       1.00
       H13          H  0.1741700  0.3480560  0.4569230    0.00000       Uiso       1.00
       H14          H  0.2007240  0.3132810  0.4423900    0.00000       Uiso       1.00
       C15          C  0.7797790  0.7715580 -0.0506660    0.00000       Uiso       1.00
       C16          C  0.7358340  0.7922510  0.0075320    0.00000       Uiso       1.00
       C17          C  0.6918530  0.7717160 -0.1186510    0.00000       Uiso       1.00
       C18          C  0.6750380  0.7923480 -0.1354910    0.00000       Uiso       1.00
       C19          C  0.6829309  0.8128840 -0.3167430    0.00000       Uiso       1.00
       C20          C  0.6667850  0.8334830 -0.3176950    0.00000       Uiso       1.00
       C21          C  0.6412890  0.8339950 -0.1477040    0.00000       Uiso       1.00
       C22          C  0.6323700  0.8133120  0.0178070    0.00000       Uiso       1.00
       C23          C  0.6490710  0.7930440  0.0277740    0.00000       Uiso       1.00
       H24          H  0.7264680  0.8080490  0.0517720    0.00000       Uiso       1.00
       H25          H  0.7007319  0.8131500 -0.4520440    0.00000       Uiso       1.00
       H26          H  0.6738300  0.8479170 -0.4464970    0.00000       Uiso       1.00
       H27          H  0.6137770  0.8129721  0.1384320    0.00000       Uiso       1.00
       H28          H  0.6420300  0.7787620  0.1614830    0.00000       Uiso       1.00
       C29          C  0.8912950  0.6058150 -0.2521690    0.00000       Uiso       1.00
       C30          C  0.8847160  0.5825500 -0.3582080    0.00000       Uiso       1.00
       C31          C  0.9036950  0.5639790 -0.3265390    0.00000       Uiso       1.00
       C32          C  0.9298530  0.5683040 -0.1881220    0.00000       Uiso       1.00
       C33          C  0.9368480  0.5914590 -0.0856500    0.00000       Uiso       1.00
       C34          C  0.9177439  0.6099760 -0.1173620    0.00000       Uiso       1.00
       C35          C  0.9472280  0.5510200 -0.1516480    0.00000       Uiso       1.00
       C36          C  0.9629500  0.5350450 -0.1129580    0.00000       Uiso       1.00
       C37          C  0.9802100  0.5178030 -0.0637700    0.00000       Uiso       1.00
       C38          C  0.0056980  0.5235010  0.0848300    0.00000       Uiso       1.00
       C39          C  0.0256250  0.5060610  0.1503820    0.00000       Uiso       1.00
       H40          H  0.8658779  0.5787900 -0.4586020    0.00000       Uiso       1.00
       H41          H  0.8980650  0.5473750 -0.4044920    0.00000       Uiso       1.00
       H42          H  0.9557630  0.5950870  0.0144920    0.00000       Uiso       1.00
       H43          H  0.9234100  0.6265350 -0.0392220    0.00000       Uiso       1.00
       H44          H  0.9899101  0.4592880 -0.1486120    0.00000       Uiso       1.00
       C45          C  0.8715220  0.6238521 -0.2817860    0.00000       Uiso       1.00
       N46          N  0.8756320  0.6460080 -0.1604700    0.00000       Uiso       1.00
       H47          H  0.6467580  0.8802570 -0.3397920    0.00000       Uiso       1.00
       C48          C  0.6084440  0.8933530 -0.1846240    0.00000       Uiso       1.00
       C49          C  0.6144330  0.9169470 -0.2780660    0.00000       Uiso       1.00
       C50          C  0.5949920  0.9350740 -0.2356840    0.00000       Uiso       1.00
       C51          C  0.5689800  0.9299560 -0.0986050    0.00000       Uiso       1.00
       C52          C  0.5626980  0.9065360 -0.0036990    0.00000       Uiso       1.00
       C53          C  0.5822500  0.8884570 -0.0465280    0.00000       Uiso       1.00
       C54          C  0.5510370  0.9468130 -0.0625790    0.00000       Uiso       1.00
       C55          C  0.5347840  0.9625090 -0.0351950    0.00000       Uiso       1.00
       C56          C  0.5175460  0.9800370 -0.0135050    0.00000       Uiso       1.00
       C57          C  0.4907950  0.9776530  0.1232450    0.00000       Uiso       1.00
       C58          C  0.4736620  0.9977100  0.1344470    0.00000       Uiso       1.00
       H59          H  0.6331250  0.9212300 -0.3784360    0.00000       Uiso       1.00
       H60          H  0.6000950  0.9519410 -0.3065950    0.00000       Uiso       1.00
       H61          H  0.5439580  0.9023780  0.0970520    0.00000       Uiso       1.00
       H62          H  0.5770710  0.8716590  0.0250480    0.00000       Uiso       1.00
       H63          H  0.5456550  0.0041670 -0.2341160    0.00000       Uiso       1.00
       C64          C  0.6285170  0.8757030 -0.2301250    0.00000       Uiso       1.00
       N65          N  0.6245790  0.8531060 -0.1291870    0.00000       Uiso       1.00
       H66          H  0.8532671  0.6198510 -0.3951440    0.00000       Uiso       1.00
       C67          C  0.2792840  0.2284960  0.0600100    0.00000       Uiso       1.00
       C68          C  0.2356060  0.2077420 -0.0135940    0.00000       Uiso       1.00
       C69          C  0.1912660  0.2281520  0.1025510    0.00000       Uiso       1.00
       C70          C  0.1746650  0.2074180  0.1185600    0.00000       Uiso       1.00
       C71          C  0.1487910  0.2064880 -0.0460070    0.00000       Uiso       1.00
       C72          C  0.1323140  0.1861170 -0.0346310    0.00000       Uiso       1.00
       C73          C  0.1413960  0.1655510  0.1329880    0.00000       Uiso       1.00
       C74          C  0.1668410  0.1662710  0.3031480    0.00000       Uiso       1.00
       C75          C  0.1827080  0.1869870  0.3016990    0.00000       Uiso       1.00
       H76          H  0.2264410  0.1919570 -0.0635540    0.00000       Uiso       1.00
       H77          H  0.1416590  0.2206620 -0.1815160    0.00000       Uiso       1.00
       H78          H  0.1137570  0.1862950 -0.1556940    0.00000       Uiso       1.00
       H79          H  0.1740310  0.1519220  0.4329400    0.00000       Uiso       1.00
       H80          H  0.2004090  0.1868830  0.4387690    0.00000       Uiso       1.00
       C81          C  0.7798940  0.7280340 -0.0504420    0.00000       Uiso       1.00
       C82          C  0.7360700  0.7073269  0.0127060    0.00000       Uiso       1.00
       C83          C  0.6919760  0.7276480 -0.1147510    0.00000       Uiso       1.00
       C84          C  0.6752990  0.7069600 -0.1284460    0.00000       Uiso       1.00
       C85          C  0.6832970  0.6863080 -0.3082400    0.00000       Uiso       1.00
       C86          C  0.6672280  0.6657081 -0.3084870    0.00000       Uiso       1.00
       C87          C  0.6417560  0.6652680 -0.1380200    0.00000       Uiso       1.00
       C88          C  0.6327830  0.6860240  0.0274620    0.00000       Uiso       1.00
       C89          C  0.6493640  0.7063360  0.0354090    0.00000       Uiso       1.00
       H90          H  0.7268010  0.6915700  0.0602350    0.00000       Uiso       1.00
       H91          H  0.7011130  0.6859670 -0.4432450    0.00000       Uiso       1.00
       H92          H  0.6743100  0.6512190 -0.4372290    0.00000       Uiso       1.00
       H93          H  0.6142230  0.6864020  0.1489810    0.00000       Uiso       1.00
       H94          H  0.6422530  0.7207220  0.1675920    0.00000       Uiso       1.00
       C95          C  0.8910340  0.8938880 -0.1778420    0.00000       Uiso       1.00
       C96          C  0.8848800  0.9174890 -0.2700590    0.00000       Uiso       1.00
       C97          C  0.9042360  0.9356520 -0.2283850    0.00000       Uiso       1.00
       C98          C  0.9303340  0.9305630 -0.0936990    0.00000       Uiso       1.00
       C99          C  0.9367670  0.9071330 -0.0002230    0.00000       Uiso       1.00
      C100          C  0.9173080  0.8890290 -0.0421900    0.00000       Uiso       1.00
      C101          C  0.9482710  0.9473920 -0.0586540    0.00000       Uiso       1.00
      C102          C  0.9646550  0.9629640 -0.0320800    0.00000       Uiso       1.00
      C103          C  0.9821350  0.9802780 -0.0115700    0.00000       Uiso       1.00
      C104          C  0.0088940  0.9775460  0.1231740    0.00000       Uiso       1.00
      C105          C  0.0263500  0.9973580  0.1322160    0.00000       Uiso       1.00
      H106          H  0.8661281  0.9217420 -0.3688980    0.00000       Uiso       1.00
      H107          H  0.8990211  0.9525260 -0.2981520    0.00000       Uiso       1.00
      H108          H  0.9555640  0.9029750  0.0987030    0.00000       Uiso       1.00
      H109          H  0.9226190  0.8722290  0.0280570    0.00000       Uiso       1.00
      H110          H  0.9543280  0.0047760 -0.2302380    0.00000       Uiso       1.00
      C111          C  0.8710810  0.8761660 -0.2216010    0.00000       Uiso       1.00
      N112          N  0.8751250  0.8536520 -0.1168730    0.00000       Uiso       1.00
      H113          H  0.6472200  0.6189580 -0.3341110    0.00000       Uiso       1.00
      H114          H  0.8528610  0.8806040 -0.3326720    0.00000       Uiso       1.00
      C115          C  0.6089250  0.6059840 -0.1786590    0.00000       Uiso       1.00
      C116          C  0.6148420  0.5823560 -0.2738730    0.00000       Uiso       1.00
      C117          C  0.5953360  0.5643260 -0.2328580    0.00000       Uiso       1.00
      C118          C  0.5693380  0.5695800 -0.0954020    0.00000       Uiso       1.00
      C119          C  0.5631300  0.5930361  0.0010350    0.00000       Uiso       1.00
      C120          C  0.5827420  0.6110120 -0.0403260    0.00000       Uiso       1.00
      C121          C  0.5513190  0.5528440 -0.0601580    0.00000       Uiso       1.00
      C122          C  0.5349600  0.5372670 -0.0331550    0.00000       Uiso       1.00
      C123          C  0.5176380  0.5198570 -0.0122230    0.00000       Uiso       1.00
      C124          C  0.4909280  0.5223950  0.1256470    0.00000       Uiso       1.00
      C125          C  0.4737040  0.5024420  0.1355460    0.00000       Uiso       1.00
      H126          H  0.6335220  0.5779810 -0.3745530    0.00000       Uiso       1.00
      H127          H  0.6003770  0.5474290 -0.3050510    0.00000       Uiso       1.00
      H128          H  0.5443950  0.5972960  0.1018030    0.00000       Uiso       1.00
      H129          H  0.5776110  0.6278349  0.0325050    0.00000       Uiso       1.00
      H130          H  0.5455830  0.4955730 -0.2360500    0.00000       Uiso       1.00
      C131          C  0.6290200  0.6235610 -0.2229960    0.00000       Uiso       1.00
      N132          N  0.6251070  0.6461650 -0.1197540    0.00000       Uiso       1.00
      C133          C  0.1780400  0.2502050  0.1470440    0.00000       Uiso       1.00
      C134          C  0.2644020  0.2502430  0.0588470    0.00000       Uiso       1.00
      H135          H  0.1577520  0.2501970  0.2138350    0.00000       Uiso       1.00
      C136          C  0.3211590  0.2503620  0.1655120    0.00000       Uiso       1.00
      C137          C  0.2349690  0.2502170  0.0547600    0.00000       Uiso       1.00
      H138          H  0.3413400  0.2504310  0.2370700    0.00000       Uiso       1.00
      O139          O  0.0489980  0.5147120  0.2955920    0.00000       Uiso       1.00
      C140          C  0.0740080  0.5035890  0.3958000    0.00000       Uiso       1.00
      H141          H  0.0872540  0.5168840  0.5108670    0.00000       Uiso       1.00
      H142          H  0.0701100  0.4898700  0.5839150    0.00000       Uiso       1.00
      H143          H  0.0844640  0.4959850  0.1755990    0.00000       Uiso       1.00
      O144          O  0.4792630  0.5424770  0.2557810    0.00000       Uiso       1.00
      C145          C  0.4888590  0.5662740  0.2841280    0.00000       Uiso       1.00
      H146          H  0.4730190  0.5768460  0.4077190    0.00000       Uiso       1.00
      H147          H  0.5073550  0.5670880  0.4384690    0.00000       Uiso       1.00
      H148          H  0.4928580  0.5736860  0.0329460    0.00000       Uiso       1.00
      O149          O  0.4790190  0.9576330  0.2512940    0.00000       Uiso       1.00
      C150          C  0.4885430  0.9337950  0.2787800    0.00000       Uiso       1.00
      H151          H  0.4726630  0.9233070  0.4015350    0.00000       Uiso       1.00
      H152          H  0.4925720  0.9263220  0.0273620    0.00000       Uiso       1.00
      H153          H  0.5070110  0.9329320  0.4335630    0.00000       Uiso       1.00
      O154          O  0.0203900  0.9573930  0.2514000    0.00000       Uiso       1.00
      C155          C  0.0104580  0.9337260  0.2827040    0.00000       Uiso       1.00
      H156          H  0.0262060  0.9230810  0.4055070    0.00000       Uiso       1.00
      H157          H  0.9920390  0.9332430  0.4391410    0.00000       Uiso       1.00
      H158          H  0.0062070  0.9261510  0.0326540    0.00000       Uiso       1.00
      C159          C  0.7208380  0.7279850 -0.0566870    0.00000       Uiso       1.00
      C160          C  0.7646270  0.7073550  0.0152140    0.00000       Uiso       1.00
      C161          C  0.8088371  0.7277410 -0.1038150    0.00000       Uiso       1.00
      C162          C  0.8254899  0.7070140 -0.1250150    0.00000       Uiso       1.00
      C163          C  0.8515820  0.7059031  0.0340010    0.00000       Uiso       1.00
      C164          C  0.8681510  0.6855620  0.0117710    0.00000       Uiso       1.00
      C165          C  0.8589800  0.6652170 -0.1620140    0.00000       Uiso       1.00
      C166          C  0.8332140  0.6661080 -0.3241970    0.00000       Uiso       1.00
      C167          C  0.8172320  0.6867500 -0.3111640    0.00000       Uiso       1.00
      H168          H  0.7738870  0.6915970  0.0637090    0.00000       Uiso       1.00
      H169          H  0.8588250  0.7199350  0.1724140    0.00000       Uiso       1.00
      H170          H  0.8868790  0.6856010  0.1286170    0.00000       Uiso       1.00
      H171          H  0.8258311  0.6519440 -0.4569230    0.00000       Uiso       1.00
      H172          H  0.7992770  0.6867201 -0.4423900    0.00000       Uiso       1.00
      C173          C  0.2202210  0.2284420  0.0506660    0.00000       Uiso       1.00
      C174          C  0.2641670  0.2077490 -0.0075320    0.00000       Uiso       1.00
      C175          C  0.3081480  0.2282840  0.1186510    0.00000       Uiso       1.00
      C176          C  0.3249630  0.2076520  0.1354910    0.00000       Uiso       1.00
      C177          C  0.3170700  0.1871160  0.3167430    0.00000       Uiso       1.00
      C178          C  0.3332150  0.1665170  0.3176950    0.00000       Uiso       1.00
      C179          C  0.3587120  0.1660060  0.1477040    0.00000       Uiso       1.00
      C180          C  0.3676300  0.1866880 -0.0178070    0.00000       Uiso       1.00
      C181          C  0.3509290  0.2069560 -0.0277740    0.00000       Uiso       1.00
      H182          H  0.2735320  0.1919510 -0.0517720    0.00000       Uiso       1.00
      H183          H  0.2992690  0.1868500  0.4520440    0.00000       Uiso       1.00
      H184          H  0.3261700  0.1520830  0.4464970    0.00000       Uiso       1.00
      H185          H  0.3862230  0.1870280 -0.1384320    0.00000       Uiso       1.00
      H186          H  0.3579700  0.2212380 -0.1614830    0.00000       Uiso       1.00
      C187          C  0.1087060  0.3941860  0.2521690    0.00000       Uiso       1.00
      C188          C  0.1152850  0.4174510  0.3582080    0.00000       Uiso       1.00
      C189          C  0.0963050  0.4360210  0.3265390    0.00000       Uiso       1.00
      C190          C  0.0701480  0.4316960  0.1881220    0.00000       Uiso       1.00
      C191          C  0.0631520  0.4085420  0.0856500    0.00000       Uiso       1.00
      C192          C  0.0822570  0.3900240  0.1173620    0.00000       Uiso       1.00
      C193          C  0.0527720  0.4489810  0.1516480    0.00000       Uiso       1.00
      C194          C  0.0370500  0.4649550  0.1129580    0.00000       Uiso       1.00
      C195          C  0.0197900  0.4821970  0.0637700    0.00000       Uiso       1.00
      C196          C  0.9943030  0.4764990 -0.0848300    0.00000       Uiso       1.00
      C197          C  0.9743761  0.4939390 -0.1503820    0.00000       Uiso       1.00
      H198          H  0.1341220  0.4212100  0.4586020    0.00000       Uiso       1.00
      H199          H  0.1019360  0.4526250  0.4044920    0.00000       Uiso       1.00
      H200          H  0.0442380  0.4049130 -0.0144920    0.00000       Uiso       1.00
      H201          H  0.0765900  0.3734650  0.0392220    0.00000       Uiso       1.00
      H202          H  0.0100900  0.5407120  0.1486120    0.00000       Uiso       1.00
      C203          C  0.1284780  0.3761480  0.2817860    0.00000       Uiso       1.00
      N204          N  0.1243690  0.3539920  0.1604700    0.00000       Uiso       1.00
      H205          H  0.3532420  0.1197430  0.3397920    0.00000       Uiso       1.00
      C206          C  0.3915560  0.1066470  0.1846240    0.00000       Uiso       1.00
      C207          C  0.3855670  0.0830530  0.2780660    0.00000       Uiso       1.00
      C208          C  0.4050090  0.0649260  0.2356840    0.00000       Uiso       1.00
      C209          C  0.4310200  0.0700440  0.0986050    0.00000       Uiso       1.00
      C210          C  0.4373020  0.0934640  0.0036990    0.00000       Uiso       1.00
      C211          C  0.4177510  0.1115440  0.0465280    0.00000       Uiso       1.00
      C212          C  0.4489630  0.0531870  0.0625790    0.00000       Uiso       1.00
      C213          C  0.4652170  0.0374920  0.0351950    0.00000       Uiso       1.00
      C214          C  0.4824550  0.0199630  0.0135050    0.00000       Uiso       1.00
      C215          C  0.5092050  0.0223470 -0.1232450    0.00000       Uiso       1.00
      C216          C  0.5263380  0.0022910 -0.1344470    0.00000       Uiso       1.00
      H217          H  0.3668760  0.0787700  0.3784360    0.00000       Uiso       1.00
      H218          H  0.3999060  0.0480590  0.3065950    0.00000       Uiso       1.00
      H219          H  0.4560420  0.0976220 -0.0970520    0.00000       Uiso       1.00
      H220          H  0.4229290  0.1283420 -0.0250480    0.00000       Uiso       1.00
      H221          H  0.4543460  0.9958340  0.2341160    0.00000       Uiso       1.00
      C222          C  0.3714840  0.1242970  0.2301250    0.00000       Uiso       1.00
      N223          N  0.3754210  0.1468940  0.1291870    0.00000       Uiso       1.00
      H224          H  0.1467340  0.3801500  0.3951440    0.00000       Uiso       1.00
      C225          C  0.7207171  0.7715040 -0.0600100    0.00000       Uiso       1.00
      C226          C  0.7643940  0.7922581  0.0135940    0.00000       Uiso       1.00
      C227          C  0.8087351  0.7718480 -0.1025510    0.00000       Uiso       1.00
      C228          C  0.8253350  0.7925820 -0.1185600    0.00000       Uiso       1.00
      C229          C  0.8512090  0.7935120  0.0460070    0.00000       Uiso       1.00
      C230          C  0.8676870  0.8138830  0.0346310    0.00000       Uiso       1.00
      C231          C  0.8586051  0.8344490 -0.1329880    0.00000       Uiso       1.00
      C232          C  0.8331590  0.8337290 -0.3031480    0.00000       Uiso       1.00
      C233          C  0.8172929  0.8130140 -0.3016990    0.00000       Uiso       1.00
      H234          H  0.7735600  0.8080430  0.0635540    0.00000       Uiso       1.00
      H235          H  0.8583420  0.7793380  0.1815160    0.00000       Uiso       1.00
      H236          H  0.8862430  0.8137050  0.1556940    0.00000       Uiso       1.00
      H237          H  0.8259700  0.8480780 -0.4329400    0.00000       Uiso       1.00
      H238          H  0.7995910  0.8131170 -0.4387690    0.00000       Uiso       1.00
      C239          C  0.2201070  0.2719660  0.0504420    0.00000       Uiso       1.00
      C240          C  0.2639310  0.2926730 -0.0127060    0.00000       Uiso       1.00
      C241          C  0.3080250  0.2723520  0.1147510    0.00000       Uiso       1.00
      C242          C  0.3247020  0.2930400  0.1284460    0.00000       Uiso       1.00
      C243          C  0.3167030  0.3136920  0.3082400    0.00000       Uiso       1.00
      C244          C  0.3327730  0.3342930  0.3084870    0.00000       Uiso       1.00
      C245          C  0.3582450  0.3347320  0.1380200    0.00000       Uiso       1.00
      C246          C  0.3672180  0.3139760 -0.0274620    0.00000       Uiso       1.00
      C247          C  0.3506360  0.2936640 -0.0354090    0.00000       Uiso       1.00
      H248          H  0.2731990  0.3084300 -0.0602350    0.00000       Uiso       1.00
      H249          H  0.2988870  0.3140330  0.4432450    0.00000       Uiso       1.00
      H250          H  0.3256910  0.3487810  0.4372290    0.00000       Uiso       1.00
      H251          H  0.3857770  0.3135980 -0.1489810    0.00000       Uiso       1.00
      H252          H  0.3577470  0.2792780 -0.1675920    0.00000       Uiso       1.00
      C253          C  0.1089660  0.1061120  0.1778420    0.00000       Uiso       1.00
      C254          C  0.1151210  0.0825120  0.2700590    0.00000       Uiso       1.00
      C255          C  0.0957650  0.0643480  0.2283850    0.00000       Uiso       1.00
      C256          C  0.0696660  0.0694370  0.0936990    0.00000       Uiso       1.00
      C257          C  0.0632340  0.0928670  0.0002230    0.00000       Uiso       1.00
      C258          C  0.0826920  0.1109710  0.0421900    0.00000       Uiso       1.00
      C259          C  0.0517290  0.0526080  0.0586540    0.00000       Uiso       1.00
      C260          C  0.0353460  0.0370360  0.0320800    0.00000       Uiso       1.00
      C261          C  0.0178660  0.0197220  0.0115700    0.00000       Uiso       1.00
      C262          C  0.9911060  0.0224540 -0.1231740    0.00000       Uiso       1.00
      C263          C  0.9736510  0.0026420 -0.1322160    0.00000       Uiso       1.00
      H264          H  0.1338730  0.0782580  0.3688980    0.00000       Uiso       1.00
      H265          H  0.1009800  0.0474750  0.2981520    0.00000       Uiso       1.00
      H266          H  0.0444360  0.0970250 -0.0987030    0.00000       Uiso       1.00
      H267          H  0.0773810  0.1277720 -0.0280570    0.00000       Uiso       1.00
      H268          H  0.0456720  0.9952240  0.2302380    0.00000       Uiso       1.00
      C269          C  0.1289190  0.1238340  0.2216010    0.00000       Uiso       1.00
      N270          N  0.1248750  0.1463480  0.1168730    0.00000       Uiso       1.00
      H271          H  0.3527800  0.3810420  0.3341110    0.00000       Uiso       1.00
      H272          H  0.1471390  0.1193960  0.3326720    0.00000       Uiso       1.00
      C273          C  0.3910760  0.3940160  0.1786590    0.00000       Uiso       1.00
      C274          C  0.3851590  0.4176440  0.2738730    0.00000       Uiso       1.00
      C275          C  0.4046650  0.4356750  0.2328580    0.00000       Uiso       1.00
      C276          C  0.4306630  0.4304200  0.0954020    0.00000       Uiso       1.00
      C277          C  0.4368710  0.4069640 -0.0010350    0.00000       Uiso       1.00
      C278          C  0.4172580  0.3889890  0.0403260    0.00000       Uiso       1.00
      C279          C  0.4486810  0.4471560  0.0601580    0.00000       Uiso       1.00
      C280          C  0.4650410  0.4627340  0.0331550    0.00000       Uiso       1.00
      C281          C  0.4823620  0.4801430  0.0122230    0.00000       Uiso       1.00
      C282          C  0.5090720  0.4776050 -0.1256470    0.00000       Uiso       1.00
      C283          C  0.5262970  0.4975580 -0.1355460    0.00000       Uiso       1.00
      H284          H  0.3664780  0.4220200  0.3745530    0.00000       Uiso       1.00
      H285          H  0.3996240  0.4525710  0.3050510    0.00000       Uiso       1.00
      H286          H  0.4556060  0.4027040 -0.1018030    0.00000       Uiso       1.00
      H287          H  0.4223900  0.3721650 -0.0325050    0.00000       Uiso       1.00
      H288          H  0.4544180  0.5044270  0.2360500    0.00000       Uiso       1.00
      C289          C  0.3709810  0.3764390  0.2229960    0.00000       Uiso       1.00
      N290          N  0.3748940  0.3538350  0.1197540    0.00000       Uiso       1.00
      C291          C  0.8219610  0.7497950 -0.1470440    0.00000       Uiso       1.00
      C292          C  0.7355990  0.7497570 -0.0588470    0.00000       Uiso       1.00
      H293          H  0.8422480  0.7498030 -0.2138350    0.00000       Uiso       1.00
      C294          C  0.6788419  0.7496380 -0.1655120    0.00000       Uiso       1.00
      C295          C  0.7650320  0.7497840 -0.0547600    0.00000       Uiso       1.00
      H296          H  0.6586610  0.7495700 -0.2370700    0.00000       Uiso       1.00
      O297          O  0.9510021  0.4852880 -0.2955920    0.00000       Uiso       1.00
      C298          C  0.9259920  0.4964110 -0.3958000    0.00000       Uiso       1.00
      H299          H  0.9127460  0.4831160 -0.5108670    0.00000       Uiso       1.00
      H300          H  0.9298900  0.5101300 -0.5839150    0.00000       Uiso       1.00
      H301          H  0.9155360  0.5040150 -0.1755990    0.00000       Uiso       1.00
      O302          O  0.5207370  0.4575240 -0.2557810    0.00000       Uiso       1.00
      C303          C  0.5111410  0.4337270 -0.2841280    0.00000       Uiso       1.00
      H304          H  0.5269820  0.4231550 -0.4077190    0.00000       Uiso       1.00
      H305          H  0.4926450  0.4329120 -0.4384690    0.00000       Uiso       1.00
      H306          H  0.5071420  0.4263140 -0.0329460    0.00000       Uiso       1.00
      O307          O  0.5209810  0.0423670 -0.2512940    0.00000       Uiso       1.00
      C308          C  0.5114570  0.0662050 -0.2787800    0.00000       Uiso       1.00
      H309          H  0.5273370  0.0766930 -0.4015350    0.00000       Uiso       1.00
      H310          H  0.5074280  0.0736780 -0.0273620    0.00000       Uiso       1.00
      H311          H  0.4929900  0.0670680 -0.4335630    0.00000       Uiso       1.00
      O312          O  0.9796101  0.0426070 -0.2514000    0.00000       Uiso       1.00
      C313          C  0.9895420  0.0662740 -0.2827040    0.00000       Uiso       1.00
      H314          H  0.9737950  0.0769190 -0.4055070    0.00000       Uiso       1.00
      H315          H  0.0079610  0.0667570 -0.4391410    0.00000       Uiso       1.00
      H316          H  0.9937930  0.0738500 -0.0326540    0.00000       Uiso       1.00
