data_Py-An_COF
_audit_creation_date              0000-00-00
_audit_creation_method            'LanYouShi'
_symmetry_space_group_name_H-M    'P1'
_cell_length_a                    29.0699997
_cell_length_b                    4.0721998
_cell_length_c                    27.3090000
_cell_angle_alpha                 90.0000000
_cell_angle_beta                  79.9269028
_cell_angle_gamma                 90.0000000
loop_
_atom_site_label
_atom_site_type_symbol
_atom_site_fract_x
_atom_site_fract_y
_atom_site_fract_z
_atom_site_U_iso_or_equiv
_atom_site_adp_type
_atom_site_occupancy
        C1          C  0.8780020  0.3624160  0.5715070    0.00000       Uiso       1.00
        C2          C  0.8689420  0.3691990  0.5223750    0.00000       Uiso       1.00
        C3          C  0.9068340  0.3795420  0.4824870    0.00000       Uiso       1.00
        C4          C  0.9534180  0.3774820  0.4909400    0.00000       Uiso       1.00
        C5          C  0.9621840  0.3737020  0.5405810    0.00000       Uiso       1.00
        C6          C  0.9241670  0.3659660  0.5805950    0.00000       Uiso       1.00
        C7          C  0.0086670  0.3770570  0.5491920    0.00000       Uiso       1.00
        H8          H  0.8510810  0.3584340  0.6010160    0.00000       Uiso       1.00
        H9          H  0.9001740  0.3859620  0.4469340    0.00000       Uiso       1.00
       H10          H  0.9297660  0.3627510  0.6165600    0.00000       Uiso       1.00
       H11          H  0.0149400  0.3777300  0.5849300    0.00000       Uiso       1.00
       N12          N  0.8255650  0.3707760  0.5107240    0.00000       Uiso       1.00
       C13          C  0.7843430  0.2712660  0.5376130    0.00000       Uiso       1.00
       H14          H  0.7839950  0.1599780  0.5712770    0.00000       Uiso       1.00
       C15          C  0.5948090  0.7632140  0.0763260    0.00000       Uiso       1.00
       C16          C  0.5550040  0.7573850  0.1142820    0.00000       Uiso       1.00
       C17          C  0.5103920  0.7798460  0.1011340    0.00000       Uiso       1.00
       C18          C  0.5049450  0.7914390  0.0507540    0.00000       Uiso       1.00
       C19          C  0.5452320  0.7913920  0.0127450    0.00000       Uiso       1.00
       C20          C  0.5900310  0.7816540  0.0260160    0.00000       Uiso       1.00
       C21          C  0.5399240  0.7961940  0.9623529    0.00000       Uiso       1.00
       H22          H  0.6275320  0.7547680  0.0850170    0.00000       Uiso       1.00
       H23          H  0.4816330  0.7809940  0.1287400    0.00000       Uiso       1.00
       H24          H  0.6194340  0.7849900  0.9992300    0.00000       Uiso       1.00
       H25          H  0.5689330  0.7981810  0.9350250    0.00000       Uiso       1.00
       N26          N  0.5565600  0.7268260  0.1633170    0.00000       Uiso       1.00
       C27          C  0.5906660  0.6034190  0.1859580    0.00000       Uiso       1.00
       H28          H  0.6201230  0.5081590  0.1647010    0.00000       Uiso       1.00
       C29          C  0.3904820  0.4630770  0.5804150    0.00000       Uiso       1.00
       C30          C  0.3906440  0.4401190  0.5287260    0.00000       Uiso       1.00
       C31          C  0.4351740  0.4586570  0.4967090    0.00000       Uiso       1.00
       C32          C  0.4776470  0.4633050  0.5164200    0.00000       Uiso       1.00
       C33          C  0.4750660  0.4672540  0.5692210    0.00000       Uiso       1.00
       C34          C  0.4310590  0.4846090  0.6022130    0.00000       Uiso       1.00
       C35          C  0.5177160  0.4532060  0.5871260    0.00000       Uiso       1.00
       C36          C  0.5607700  0.4724200  0.5555060    0.00000       Uiso       1.00
       H37          H  0.3589080  0.4635500  0.6036080    0.00000       Uiso       1.00
       H38          H  0.5187491  0.4280130  0.6240180    0.00000       Uiso       1.00
       H39          H  0.5892671  0.4969790  0.5722280    0.00000       Uiso       1.00
       C40          C  0.4248310  0.5246160  0.6551160    0.00000       Uiso       1.00
       C41          C  0.3890860  0.3567540  0.6878610    0.00000       Uiso       1.00
       C42          C  0.3830550  0.3928970  0.7398430    0.00000       Uiso       1.00
       C43          C  0.4140420  0.5878790  0.7618700    0.00000       Uiso       1.00
       C44          C  0.4493000  0.7609740  0.7299620    0.00000       Uiso       1.00
       C45          C  0.4532300  0.7386310  0.6779680    0.00000       Uiso       1.00
       H46          H  0.3672570  0.1969430  0.6743170    0.00000       Uiso       1.00
       H47          H  0.3565370  0.2666740  0.7614930    0.00000       Uiso       1.00
       H48          H  0.4718850  0.9108340  0.7443751    0.00000       Uiso       1.00
       H49          H  0.4773810  0.8850770  0.6567339    0.00000       Uiso       1.00
       C50          C  0.6533910  0.3948660  0.4871680    0.00000       Uiso       1.00
       C51          C  0.6587560  0.1781920  0.5264310    0.00000       Uiso       1.00
       C52          C  0.7012760  0.1458860  0.5439360    0.00000       Uiso       1.00
       C53          C  0.7418450  0.3102640  0.5201460    0.00000       Uiso       1.00
       C54          C  0.7379999  0.5117240  0.4789580    0.00000       Uiso       1.00
       C55          C  0.6946490  0.5578800  0.4636710    0.00000       Uiso       1.00
       H56          H  0.6314140  0.0360700  0.5428040    0.00000       Uiso       1.00
       H57          H  0.7025350 -0.0062440  0.5735330    0.00000       Uiso       1.00
       H58          H  0.7666320  0.6337260  0.4604120    0.00000       Uiso       1.00
       H59          H  0.6936480  0.7204290  0.4353450    0.00000       Uiso       1.00
       C60          C  0.1219960  0.3624160  0.4284940    0.00000       Uiso       1.00
       C61          C  0.1310560  0.3691990  0.4776270    0.00000       Uiso       1.00
       C62          C  0.0931630  0.3795420  0.5175140    0.00000       Uiso       1.00
       C63          C  0.0465800  0.3774820  0.5090610    0.00000       Uiso       1.00
       C64          C  0.0378140  0.3737020  0.4594200    0.00000       Uiso       1.00
       C65          C  0.0758310  0.3659660  0.4194060    0.00000       Uiso       1.00
       C66          C  0.9913310  0.3770570  0.4508090    0.00000       Uiso       1.00
       H67          H  0.1489170  0.3584340  0.3989850    0.00000       Uiso       1.00
       H68          H  0.0998240  0.3859620  0.5530670    0.00000       Uiso       1.00
       H69          H  0.0702320  0.3627510  0.3834420    0.00000       Uiso       1.00
       H70          H  0.9850580  0.3777300  0.4150720    0.00000       Uiso       1.00
       N71          N  0.1744330  0.3707760  0.4892770    0.00000       Uiso       1.00
       C72          C  0.2156540  0.2712660  0.4623880    0.00000       Uiso       1.00
       H73          H  0.2160020  0.1599780  0.4287250    0.00000       Uiso       1.00
       C74          C  0.4051890  0.7632140  0.9236760    0.00000       Uiso       1.00
       C75          C  0.4449930  0.7573850  0.8857190    0.00000       Uiso       1.00
       C76          C  0.4896060  0.7798460  0.8988670    0.00000       Uiso       1.00
       C77          C  0.4950520  0.7914390  0.9492470    0.00000       Uiso       1.00
       C78          C  0.4547650  0.7913920  0.9872560    0.00000       Uiso       1.00
       C79          C  0.4099660  0.7816540  0.9739860    0.00000       Uiso       1.00
       C80          C  0.4600730  0.7961940  0.0376490    0.00000       Uiso       1.00
       H81          H  0.3724650  0.7547680  0.9149840    0.00000       Uiso       1.00
       H82          H  0.5183640  0.7809940  0.8712620    0.00000       Uiso       1.00
       H83          H  0.3805630  0.7849900  0.0007710    0.00000       Uiso       1.00
       H84          H  0.4310640  0.7981810  0.0649760    0.00000       Uiso       1.00
       N85          N  0.4434370  0.7268260  0.8366840    0.00000       Uiso       1.00
       C86          C  0.4093310  0.6034190  0.8140440    0.00000       Uiso       1.00
       H87          H  0.3798740  0.5081590  0.8353000    0.00000       Uiso       1.00
       C88          C  0.6095150  0.4630770  0.4195870    0.00000       Uiso       1.00
       C89          C  0.6093540  0.4401190  0.4712750    0.00000       Uiso       1.00
       C90          C  0.5648230  0.4586570  0.5032930    0.00000       Uiso       1.00
       C91          C  0.5223510  0.4633050  0.4835810    0.00000       Uiso       1.00
       C92          C  0.5249320  0.4672540  0.4307800    0.00000       Uiso       1.00
       C93          C  0.5689390  0.4846090  0.3977880    0.00000       Uiso       1.00
       C94          C  0.4822810  0.4532060  0.4128750    0.00000       Uiso       1.00
       C95          C  0.4392270  0.4724200  0.4444960    0.00000       Uiso       1.00
       H96          H  0.6410900  0.4635500  0.3963930    0.00000       Uiso       1.00
       H97          H  0.4812480  0.4280130  0.3759830    0.00000       Uiso       1.00
       H98          H  0.4107310  0.4969790  0.4277730    0.00000       Uiso       1.00
       C99          C  0.5751660  0.5246160  0.3448850    0.00000       Uiso       1.00
      C100          C  0.6109111  0.3567540  0.3121410    0.00000       Uiso       1.00
      C101          C  0.6169430  0.3928970  0.2601580    0.00000       Uiso       1.00
      C102          C  0.5859550  0.5878790  0.2381310    0.00000       Uiso       1.00
      C103          C  0.5506970  0.7609740  0.2700390    0.00000       Uiso       1.00
      C104          C  0.5467670  0.7386310  0.3220330    0.00000       Uiso       1.00
      H105          H  0.6327410  0.1969430  0.3256840    0.00000       Uiso       1.00
      H106          H  0.6434610  0.2666740  0.2385090    0.00000       Uiso       1.00
      H107          H  0.5281130  0.9108340  0.2556270    0.00000       Uiso       1.00
      H108          H  0.5226160  0.8850770  0.3432680    0.00000       Uiso       1.00
      C109          C  0.3466060  0.3948660  0.5128330    0.00000       Uiso       1.00
      C110          C  0.3412410  0.1781920  0.4735700    0.00000       Uiso       1.00
      C111          C  0.2987220  0.1458860  0.4560660    0.00000       Uiso       1.00
      C112          C  0.2581520  0.3102640  0.4798560    0.00000       Uiso       1.00
      C113          C  0.2619980  0.5117240  0.5210440    0.00000       Uiso       1.00
      C114          C  0.3053490  0.5578800  0.5363300    0.00000       Uiso       1.00
      H115          H  0.3685830  0.0360700  0.4571980    0.00000       Uiso       1.00
      H116          H  0.2974620 -0.0062440  0.4264680    0.00000       Uiso       1.00
      H117          H  0.2333650  0.6337260  0.5395890    0.00000       Uiso       1.00
      H118          H  0.3063490  0.7204290  0.5646560    0.00000       Uiso       1.00
