data_Py-Azine_COF
_audit_creation_date              0000-00-00
_audit_creation_method            'LanYouShi'
_symmetry_space_group_name_H-M    'P1'
_cell_length_a                    29.9683990
_cell_length_b                    27.9195004
_cell_length_c                    3.9170001
_cell_angle_alpha                 90.0000000
_cell_angle_beta                  90.0000000
_cell_angle_gamma                 90.0000000
loop_
_atom_site_label
_atom_site_type_symbol
_atom_site_fract_x
_atom_site_fract_y
_atom_site_fract_z
_atom_site_U_iso_or_equiv
_atom_site_adp_type
_atom_site_occupancy
        C1          C  0.0410210  0.5537910  0.0000000    0.00000       Uiso       1.00
        C2          C  0.0789380  0.4752560  0.0000000    0.00000       Uiso       1.00
        C3          C  0.0437290  0.3942780  0.0000000    0.00000       Uiso       1.00
        C4          C  0.0820590  0.3601910  0.0000000    0.00000       Uiso       1.00
        C5          C  0.0769430  0.3085050  0.0000000    0.00000       Uiso       1.00
        C6          C  0.1114160  0.2741600  0.0000000    0.00000       Uiso       1.00
        C7          C  0.1562960  0.2880890  0.0000000    0.00000       Uiso       1.00
        C8          C  0.1644220  0.3375020  0.0000000    0.00000       Uiso       1.00
        C9          C  0.1290460  0.3708490  0.0000000    0.00000       Uiso       1.00
       C10          C  0.1906920  0.2536800  0.0000000    0.00000       Uiso       1.00
       H11          H  0.1092990  0.4624400  0.0000000    0.00000       Uiso       1.00
       H12          H  0.0472770  0.2913340  0.0000000    0.00000       Uiso       1.00
       H13          H  0.1033210  0.2384650  0.0000000    0.00000       Uiso       1.00
       H14          H  0.1966990  0.3497200  0.0000000    0.00000       Uiso       1.00
       H15          H  0.1420570  0.4033400  0.0000000    0.00000       Uiso       1.00
       H16          H  0.1826280  0.2180360  0.0000000    0.00000       Uiso       1.00
       C17          C  0.5410210  0.0537910  0.0000000    0.00000       Uiso       1.00
       C18          C  0.9589780  0.4462090  0.0000000    0.00000       Uiso       1.00
       C19          C  0.9210620  0.5247430  0.0000000    0.00000       Uiso       1.00
       C20          C  0.9562710  0.6057220  0.0000000    0.00000       Uiso       1.00
       C21          C  0.9179410  0.6398090  0.0000000    0.00000       Uiso       1.00
       C22          C  0.9230570  0.6914950  0.0000000    0.00000       Uiso       1.00
       C23          C  0.8885840  0.7258400  0.0000000    0.00000       Uiso       1.00
       C24          C  0.8437040  0.7119110  0.0000000    0.00000       Uiso       1.00
       C25          C  0.8355780  0.6624980  0.0000000    0.00000       Uiso       1.00
       C26          C  0.8709540  0.6291510  0.0000000    0.00000       Uiso       1.00
       C27          C  0.8093080  0.7463190  0.0000000    0.00000       Uiso       1.00
       H28          H  0.8907010  0.5375590  0.0000000    0.00000       Uiso       1.00
       H29          H  0.9527230  0.7086660  0.0000000    0.00000       Uiso       1.00
       H30          H  0.8966790  0.7615340  0.0000000    0.00000       Uiso       1.00
       H31          H  0.8033010  0.6502800  0.0000000    0.00000       Uiso       1.00
       H32          H  0.8579430  0.5966600  0.0000000    0.00000       Uiso       1.00
       H33          H  0.8173720  0.7819640  0.0000000    0.00000       Uiso       1.00
       C34          C  0.4589790  0.9462090  0.0000000    0.00000       Uiso       1.00
       C35          C  0.9589780  0.5537910  0.0000000    0.00000       Uiso       1.00
       C36          C  0.9210620  0.4752560  0.0000000    0.00000       Uiso       1.00
       C37          C  0.9562710  0.3942780  0.0000000    0.00000       Uiso       1.00
       C38          C  0.9179410  0.3601910  0.0000000    0.00000       Uiso       1.00
       C39          C  0.9230570  0.3085050  0.0000000    0.00000       Uiso       1.00
       C40          C  0.8885840  0.2741600  0.0000000    0.00000       Uiso       1.00
       C41          C  0.8437040  0.2880890  0.0000000    0.00000       Uiso       1.00
       C42          C  0.8355780  0.3375020  0.0000000    0.00000       Uiso       1.00
       C43          C  0.8709540  0.3708490  0.0000000    0.00000       Uiso       1.00
       C44          C  0.8093080  0.2536800  0.0000000    0.00000       Uiso       1.00
       H45          H  0.8907010  0.4624400  0.0000000    0.00000       Uiso       1.00
       H46          H  0.9527230  0.2913340  0.0000000    0.00000       Uiso       1.00
       H47          H  0.8966790  0.2384650  0.0000000    0.00000       Uiso       1.00
       H48          H  0.8033010  0.3497200  0.0000000    0.00000       Uiso       1.00
       H49          H  0.8579430  0.4033400  0.0000000    0.00000       Uiso       1.00
       H50          H  0.8173720  0.2180360  0.0000000    0.00000       Uiso       1.00
       C51          C  0.4589790  0.0537910  0.0000000    0.00000       Uiso       1.00
       C52          C  0.0410210  0.4462090  0.0000000    0.00000       Uiso       1.00
       C53          C  0.0789380  0.5247430  0.0000000    0.00000       Uiso       1.00
       C54          C  0.0437290  0.6057220  0.0000000    0.00000       Uiso       1.00
       C55          C  0.0820590  0.6398090  0.0000000    0.00000       Uiso       1.00
       C56          C  0.0769430  0.6914950  0.0000000    0.00000       Uiso       1.00
       C57          C  0.1114160  0.7258400  0.0000000    0.00000       Uiso       1.00
       C58          C  0.1562960  0.7119110  0.0000000    0.00000       Uiso       1.00
       C59          C  0.1644220  0.6624980  0.0000000    0.00000       Uiso       1.00
       C60          C  0.1290460  0.6291510  0.0000000    0.00000       Uiso       1.00
       C61          C  0.1906920  0.7463190  0.0000000    0.00000       Uiso       1.00
       H62          H  0.1092990  0.5375590  0.0000000    0.00000       Uiso       1.00
       H63          H  0.0472770  0.7086660  0.0000000    0.00000       Uiso       1.00
       H64          H  0.1033210  0.7615340  0.0000000    0.00000       Uiso       1.00
       H65          H  0.1966990  0.6502800  0.0000000    0.00000       Uiso       1.00
       H66          H  0.1420570  0.5966600  0.0000000    0.00000       Uiso       1.00
       H67          H  0.1826280  0.7819640  0.0000000    0.00000       Uiso       1.00
       C68          C  0.5410210  0.9462090  0.0000000    0.00000       Uiso       1.00
       C69          C  0.5789380  0.9752560  0.0000000    0.00000       Uiso       1.00
       C70          C  0.5437290  0.8942770  0.0000000    0.00000       Uiso       1.00
       C71          C  0.5820590  0.8601910  0.0000000    0.00000       Uiso       1.00
       C72          C  0.5769430  0.8085050  0.0000000    0.00000       Uiso       1.00
       C73          C  0.6114160  0.7741600  0.0000000    0.00000       Uiso       1.00
       C74          C  0.6562960  0.7880890  0.0000000    0.00000       Uiso       1.00
       C75          C  0.6644220  0.8375020  0.0000000    0.00000       Uiso       1.00
       C76          C  0.6290460  0.8708490  0.0000000    0.00000       Uiso       1.00
       C77          C  0.6906920  0.7536800  0.0000000    0.00000       Uiso       1.00
       H78          H  0.6092990  0.9624400  0.0000000    0.00000       Uiso       1.00
       H79          H  0.5472770  0.7913340  0.0000000    0.00000       Uiso       1.00
       H80          H  0.6033210  0.7384650  0.0000000    0.00000       Uiso       1.00
       H81          H  0.6966990  0.8497200  0.0000000    0.00000       Uiso       1.00
       H82          H  0.6420570  0.9033400  0.0000000    0.00000       Uiso       1.00
       H83          H  0.6826280  0.7180360  0.0000000    0.00000       Uiso       1.00
       C84          C  0.4210620  0.0247430  0.0000000    0.00000       Uiso       1.00
       C85          C  0.4562710  0.1057220  0.0000000    0.00000       Uiso       1.00
       C86          C  0.4179410  0.1398090  0.0000000    0.00000       Uiso       1.00
       C87          C  0.4230570  0.1914950  0.0000000    0.00000       Uiso       1.00
       C88          C  0.3885840  0.2258400  0.0000000    0.00000       Uiso       1.00
       C89          C  0.3437040  0.2119110  0.0000000    0.00000       Uiso       1.00
       C90          C  0.3355780  0.1624980  0.0000000    0.00000       Uiso       1.00
       C91          C  0.3709540  0.1291510  0.0000000    0.00000       Uiso       1.00
       C92          C  0.3093080  0.2463190  0.0000000    0.00000       Uiso       1.00
       H93          H  0.3907010  0.0375590  0.0000000    0.00000       Uiso       1.00
       H94          H  0.4527230  0.2086660  0.0000000    0.00000       Uiso       1.00
       H95          H  0.3966790  0.2615350  0.0000000    0.00000       Uiso       1.00
       H96          H  0.3033010  0.1502800  0.0000000    0.00000       Uiso       1.00
       H97          H  0.3579430  0.0966600  0.0000000    0.00000       Uiso       1.00
       H98          H  0.3173720  0.2819640  0.0000000    0.00000       Uiso       1.00
       C99          C  0.4210620  0.9752560  0.0000000    0.00000       Uiso       1.00
      C100          C  0.4562710  0.8942770  0.0000000    0.00000       Uiso       1.00
      C101          C  0.4179410  0.8601910  0.0000000    0.00000       Uiso       1.00
      C102          C  0.4230570  0.8085050  0.0000000    0.00000       Uiso       1.00
      C103          C  0.3885840  0.7741600  0.0000000    0.00000       Uiso       1.00
      C104          C  0.3437040  0.7880890  0.0000000    0.00000       Uiso       1.00
      C105          C  0.3355780  0.8375020  0.0000000    0.00000       Uiso       1.00
      C106          C  0.3709540  0.8708490  0.0000000    0.00000       Uiso       1.00
      C107          C  0.3093080  0.7536800  0.0000000    0.00000       Uiso       1.00
      H108          H  0.3907010  0.9624400  0.0000000    0.00000       Uiso       1.00
      H109          H  0.4527230  0.7913340  0.0000000    0.00000       Uiso       1.00
      H110          H  0.3966790  0.7384650  0.0000000    0.00000       Uiso       1.00
      H111          H  0.3033010  0.8497200  0.0000000    0.00000       Uiso       1.00
      H112          H  0.3579430  0.9033400  0.0000000    0.00000       Uiso       1.00
      H113          H  0.3173720  0.7180360  0.0000000    0.00000       Uiso       1.00
      C114          C  0.5789380  0.0247430  0.0000000    0.00000       Uiso       1.00
      C115          C  0.5437290  0.1057220  0.0000000    0.00000       Uiso       1.00
      C116          C  0.5820590  0.1398090  0.0000000    0.00000       Uiso       1.00
      C117          C  0.5769430  0.1914950  0.0000000    0.00000       Uiso       1.00
      C118          C  0.6114160  0.2258400  0.0000000    0.00000       Uiso       1.00
      C119          C  0.6562960  0.2119110  0.0000000    0.00000       Uiso       1.00
      C120          C  0.6644220  0.1624980  0.0000000    0.00000       Uiso       1.00
      C121          C  0.6290460  0.1291510  0.0000000    0.00000       Uiso       1.00
      C122          C  0.6906920  0.2463190  0.0000000    0.00000       Uiso       1.00
      H123          H  0.6092990  0.0375590  0.0000000    0.00000       Uiso       1.00
      H124          H  0.5472770  0.2086660  0.0000000    0.00000       Uiso       1.00
      H125          H  0.6033210  0.2615350  0.0000000    0.00000       Uiso       1.00
      H126          H  0.6966990  0.1502800  0.0000000    0.00000       Uiso       1.00
      H127          H  0.6420570  0.0966600  0.0000000    0.00000       Uiso       1.00
      H128          H  0.6826280  0.2819640  0.0000000    0.00000       Uiso       1.00
      N129          N  0.2342240  0.2658150  0.0000000    0.00000       Uiso       1.00
      N130          N  0.7342240  0.7658150  0.0000000    0.00000       Uiso       1.00
      N131          N  0.7657760  0.7341850  0.0000000    0.00000       Uiso       1.00
      N132          N  0.2657760  0.2341850  0.0000000    0.00000       Uiso       1.00
      N133          N  0.7657760  0.2658150  0.0000000    0.00000       Uiso       1.00
      N134          N  0.2657760  0.7658150  0.0000000    0.00000       Uiso       1.00
      N135          N  0.2342240  0.7341850  0.0000000    0.00000       Uiso       1.00
      N136          N  0.7342240  0.2341850  0.0000000    0.00000       Uiso       1.00
      C137          C  0.0000000  0.3744730  0.0000000    0.00000       Uiso       1.00
      C138          C  0.0000000  0.5265560  0.0000000    0.00000       Uiso       1.00
      H139          H  0.0000000  0.3402760  0.0000000    0.00000       Uiso       1.00
      C140          C  0.5000000  0.8744720  0.0000000    0.00000       Uiso       1.00
      H141          H  0.5000000  0.8402760  0.0000000    0.00000       Uiso       1.00
      C142          C  0.0000000  0.6255270  0.0000000    0.00000       Uiso       1.00
      C143          C  0.0000000  0.4734440  0.0000000    0.00000       Uiso       1.00
      H144          H  0.0000000  0.6597240  0.0000000    0.00000       Uiso       1.00
      C145          C  0.5000000  0.1255270  0.0000000    0.00000       Uiso       1.00
      H146          H  0.5000000  0.1597240  0.0000000    0.00000       Uiso       1.00
      C147          C  0.5000000  0.0265560  0.0000000    0.00000       Uiso       1.00
      C148          C  0.5000000  0.9734430  0.0000000    0.00000       Uiso       1.00
