data_Py-DBA-COF-1
_audit_creation_date              0000-00-00
_audit_creation_method            'LanYouShi'
_symmetry_space_group_name_H-M    'P1'
_cell_length_a                    42.1637993
_cell_length_b                    42.1637993
_cell_length_c                    3.5084000
_cell_angle_alpha                 90.0000000
_cell_angle_beta                  90.0000000
_cell_angle_gamma                 120.0000000
loop_
_atom_site_label
_atom_site_type_symbol
_atom_site_fract_x
_atom_site_fract_y
_atom_site_fract_z
_atom_site_U_iso_or_equiv
_atom_site_adp_type
_atom_site_occupancy
        C1          C  0.4513600  0.4902720  0.0000000    0.00000       Uiso       1.00
        C2          C  0.4323340  0.5098970  0.0000000    0.00000       Uiso       1.00
        C3          C  0.4323930  0.4516300  0.0000000    0.00000       Uiso       1.00
        H4          H  0.4042830  0.4958750  0.0000000    0.00000       Uiso       1.00
        H5          H  0.4043690  0.4371210  0.0000000    0.00000       Uiso       1.00
        C6          C  0.3858420  0.8047600  0.0000000    0.00000       Uiso       1.00
        C7          C  0.3522320  0.7718700  0.0000000    0.00000       Uiso       1.00
        C8          C  0.3204410  0.7078890  0.0000000    0.00000       Uiso       1.00
        C9          C  0.3521630  0.7382440  0.0000000    0.00000       Uiso       1.00
       H10          H  0.3284490  0.7728720  0.0000000    0.00000       Uiso       1.00
       O11          O  0.3917930  0.8393130  0.0000000    0.00000       Uiso       1.00
       C12          C  0.5486430  0.5097310  0.0000000    0.00000       Uiso       1.00
       C13          C  0.5676690  0.4901060  0.0000000    0.00000       Uiso       1.00
       C14          C  0.5676090  0.5483730  0.0000000    0.00000       Uiso       1.00
       H15          H  0.5957200  0.5041280  0.0000000    0.00000       Uiso       1.00
       H16          H  0.5956340  0.5628820  0.0000000    0.00000       Uiso       1.00
       C17          C  0.6141580  0.1952410  0.0000000    0.00000       Uiso       1.00
       C18          C  0.6477670  0.2281300  0.0000000    0.00000       Uiso       1.00
       C19          C  0.6795590  0.2921110  0.0000000    0.00000       Uiso       1.00
       C20          C  0.7078890  0.3204410  0.0000000    0.00000       Uiso       1.00
       C21          C  0.6478370  0.2617560  0.0000000    0.00000       Uiso       1.00
       H22          H  0.6715500  0.2271290  0.0000000    0.00000       Uiso       1.00
       O23          O  0.6082060  0.1606870  0.0000000    0.00000       Uiso       1.00
       C24          C  0.5097310  0.5486430  0.0000000    0.00000       Uiso       1.00
       C25          C  0.4901060  0.5676690  0.0000000    0.00000       Uiso       1.00
       C26          C  0.5483730  0.5676090  0.0000000    0.00000       Uiso       1.00
       H27          H  0.5041280  0.5957200  0.0000000    0.00000       Uiso       1.00
       H28          H  0.5628820  0.5956340  0.0000000    0.00000       Uiso       1.00
       C29          C  0.1952410  0.6141580  0.0000000    0.00000       Uiso       1.00
       C30          C  0.2281300  0.6477670  0.0000000    0.00000       Uiso       1.00
       C31          C  0.2921110  0.6795590  0.0000000    0.00000       Uiso       1.00
       C32          C  0.2617560  0.6478370  0.0000000    0.00000       Uiso       1.00
       H33          H  0.2271280  0.6715500  0.0000000    0.00000       Uiso       1.00
       O34          O  0.1606870  0.6082060  0.0000000    0.00000       Uiso       1.00
       C35          C  0.4902720  0.4513600  0.0000000    0.00000       Uiso       1.00
       C36          C  0.5098970  0.4323340  0.0000000    0.00000       Uiso       1.00
       C37          C  0.4516300  0.4323930  0.0000000    0.00000       Uiso       1.00
       H38          H  0.4958750  0.4042820  0.0000000    0.00000       Uiso       1.00
       H39          H  0.4371210  0.4043690  0.0000000    0.00000       Uiso       1.00
       C40          C  0.8047600  0.3858420  0.0000000    0.00000       Uiso       1.00
       C41          C  0.7718700  0.3522320  0.0000000    0.00000       Uiso       1.00
       C42          C  0.7382440  0.3521630  0.0000000    0.00000       Uiso       1.00
       H43          H  0.7728710  0.3284490  0.0000000    0.00000       Uiso       1.00
       O44          O  0.8393130  0.3917930  0.0000000    0.00000       Uiso       1.00
       B45          B  0.4311080  0.8622180  0.0000000    0.00000       Uiso       1.00
       B46          B  0.5688910  0.1377830  0.0000000    0.00000       Uiso       1.00
       C47          C  0.4514790  0.5485240  0.0000000    0.00000       Uiso       1.00
       C48          C  0.4902690  0.5097340  0.0000000    0.00000       Uiso       1.00
       C49          C  0.5485240  0.4514790  0.0000000    0.00000       Uiso       1.00
       C50          C  0.5097340  0.4902690  0.0000000    0.00000       Uiso       1.00
       C51          C  0.5097290  0.9610890  0.0000000    0.00000       Uiso       1.00
       C52          C  0.4901040  0.9224371  0.0000000    0.00000       Uiso       1.00
       C53          C  0.5483700  0.9807640  0.0000000    0.00000       Uiso       1.00
       H54          H  0.5041260  0.9084090  0.0000000    0.00000       Uiso       1.00
       H55          H  0.5628800  0.9672490  0.0000000    0.00000       Uiso       1.00
       C56          C  0.1952410  0.5810830  0.0000000    0.00000       Uiso       1.00
       C57          C  0.2281310  0.5803630  0.0000000    0.00000       Uiso       1.00
       C58          C  0.2921120  0.6125530  0.0000000    0.00000       Uiso       1.00
       C59          C  0.2617570  0.6139190  0.0000000    0.00000       Uiso       1.00
       H60          H  0.2271290  0.5555780  0.0000000    0.00000       Uiso       1.00
       O61          O  0.1606880  0.5524810  0.0000000    0.00000       Uiso       1.00
       C62          C  0.4902700  0.0389120  0.0000000    0.00000       Uiso       1.00
       C63          C  0.5098950  0.0775630  0.0000000    0.00000       Uiso       1.00
       C64          C  0.4516280  0.0192370  0.0000000    0.00000       Uiso       1.00
       H65          H  0.4958730  0.0915920  0.0000000    0.00000       Uiso       1.00
       H66          H  0.4371190  0.0327510  0.0000000    0.00000       Uiso       1.00
       C67          C  0.8047600  0.4189170  0.0000000    0.00000       Uiso       1.00
       C68          C  0.7718700  0.4196370  0.0000000    0.00000       Uiso       1.00
       C69          C  0.7078900  0.3874480  0.0000000    0.00000       Uiso       1.00
       C70          C  0.6795590  0.3874480  0.0000000    0.00000       Uiso       1.00
       C71          C  0.7382440  0.3860810  0.0000000    0.00000       Uiso       1.00
       H72          H  0.7728720  0.4444220  0.0000000    0.00000       Uiso       1.00
       O73          O  0.8393130  0.4475180  0.0000000    0.00000       Uiso       1.00
       C74          C  0.4513580  0.9610890  0.0000000    0.00000       Uiso       1.00
       C75          C  0.4323320  0.9224371  0.0000000    0.00000       Uiso       1.00
       C76          C  0.4323910  0.9807640  0.0000000    0.00000       Uiso       1.00
       H77          H  0.4042800  0.9084079  0.0000000    0.00000       Uiso       1.00
       H78          H  0.4043670  0.9672490  0.0000000    0.00000       Uiso       1.00
       C79          C  0.3858430  0.5810840  0.0000000    0.00000       Uiso       1.00
       C80          C  0.3522330  0.5803640  0.0000000    0.00000       Uiso       1.00
       C81          C  0.3204420  0.6125530  0.0000000    0.00000       Uiso       1.00
       C82          C  0.3521640  0.6139200  0.0000000    0.00000       Uiso       1.00
       H83          H  0.3284510  0.5555790  0.0000000    0.00000       Uiso       1.00
       O84          O  0.3917950  0.5524820  0.0000000    0.00000       Uiso       1.00
       C85          C  0.5486400  0.0389110  0.0000000    0.00000       Uiso       1.00
       C86          C  0.5676670  0.0775630  0.0000000    0.00000       Uiso       1.00
       C87          C  0.5676070  0.0192370  0.0000000    0.00000       Uiso       1.00
       H88          H  0.5957180  0.0915920  0.0000000    0.00000       Uiso       1.00
       H89          H  0.5956310  0.0327510  0.0000000    0.00000       Uiso       1.00
       C90          C  0.6141590  0.4189180  0.0000000    0.00000       Uiso       1.00
       C91          C  0.6477690  0.4196380  0.0000000    0.00000       Uiso       1.00
       C92          C  0.6478380  0.3860810  0.0000000    0.00000       Uiso       1.00
       H93          H  0.6715520  0.4444220  0.0000000    0.00000       Uiso       1.00
       O94          O  0.6082080  0.4475200  0.0000000    0.00000       Uiso       1.00
       B95          B  0.1377830  0.5688910  0.0000000    0.00000       Uiso       1.00
       B96          B  0.8622180  0.4311080  0.0000000    0.00000       Uiso       1.00
       C97          C  0.4514770  0.9029560  0.0000000    0.00000       Uiso       1.00
       C98          C  0.4902670  0.9805369  0.0000000    0.00000       Uiso       1.00
       C99          C  0.5485220  0.0970450  0.0000000    0.00000       Uiso       1.00
      C100          C  0.5097310  0.0194640  0.0000000    0.00000       Uiso       1.00
      C101          C  0.0389110  0.5486400  0.0000000    0.00000       Uiso       1.00
      C102          C  0.0775630  0.5676670  0.0000000    0.00000       Uiso       1.00
      C103          C  0.0192370  0.5676070  0.0000000    0.00000       Uiso       1.00
      H104          H  0.0915920  0.5957180  0.0000000    0.00000       Uiso       1.00
      H105          H  0.0327510  0.5956310  0.0000000    0.00000       Uiso       1.00
      C106          C  0.4189180  0.6141590  0.0000000    0.00000       Uiso       1.00
      C107          C  0.4196380  0.6477690  0.0000000    0.00000       Uiso       1.00
      C108          C  0.3874480  0.6795600  0.0000000    0.00000       Uiso       1.00
      C109          C  0.3860810  0.6478380  0.0000000    0.00000       Uiso       1.00
      H110          H  0.4444220  0.6715520  0.0000000    0.00000       Uiso       1.00
      O111          O  0.4475200  0.6082080  0.0000000    0.00000       Uiso       1.00
      C112          C  0.9610890  0.4513580  0.0000000    0.00000       Uiso       1.00
      C113          C  0.9224370  0.4323320  0.0000000    0.00000       Uiso       1.00
      C114          C  0.9807639  0.4323910  0.0000000    0.00000       Uiso       1.00
      H115          H  0.9084080  0.4042800  0.0000000    0.00000       Uiso       1.00
      H116          H  0.9672490  0.4043670  0.0000000    0.00000       Uiso       1.00
      C117          C  0.5810840  0.3858430  0.0000000    0.00000       Uiso       1.00
      C118          C  0.5803640  0.3522330  0.0000000    0.00000       Uiso       1.00
      C119          C  0.6125530  0.3204420  0.0000000    0.00000       Uiso       1.00
      C120          C  0.6125530  0.2921120  0.0000000    0.00000       Uiso       1.00
      C121          C  0.6139200  0.3521640  0.0000000    0.00000       Uiso       1.00
      H122          H  0.5555790  0.3284500  0.0000000    0.00000       Uiso       1.00
      O123          O  0.5524820  0.3917950  0.0000000    0.00000       Uiso       1.00
      C124          C  0.0389110  0.4902700  0.0000000    0.00000       Uiso       1.00
      C125          C  0.0775630  0.5098950  0.0000000    0.00000       Uiso       1.00
      C126          C  0.0192370  0.4516280  0.0000000    0.00000       Uiso       1.00
      H127          H  0.0915920  0.4958730  0.0000000    0.00000       Uiso       1.00
      H128          H  0.0327510  0.4371190  0.0000000    0.00000       Uiso       1.00
      C129          C  0.4189170  0.8047600  0.0000000    0.00000       Uiso       1.00
      C130          C  0.4196370  0.7718700  0.0000000    0.00000       Uiso       1.00
      C131          C  0.3874480  0.7078900  0.0000000    0.00000       Uiso       1.00
      C132          C  0.3860810  0.7382440  0.0000000    0.00000       Uiso       1.00
      H133          H  0.4444220  0.7728720  0.0000000    0.00000       Uiso       1.00
      O134          O  0.4475180  0.8393130  0.0000000    0.00000       Uiso       1.00
      C135          C  0.9610890  0.5097290  0.0000000    0.00000       Uiso       1.00
      C136          C  0.9224370  0.4901040  0.0000000    0.00000       Uiso       1.00
      C137          C  0.9807640  0.5483710  0.0000000    0.00000       Uiso       1.00
      H138          H  0.9084090  0.5041260  0.0000000    0.00000       Uiso       1.00
      H139          H  0.9672500  0.5628800  0.0000000    0.00000       Uiso       1.00
      C140          C  0.5810830  0.1952410  0.0000000    0.00000       Uiso       1.00
      C141          C  0.5803630  0.2281310  0.0000000    0.00000       Uiso       1.00
      C142          C  0.6139190  0.2617570  0.0000000    0.00000       Uiso       1.00
      H143          H  0.5555780  0.2271290  0.0000000    0.00000       Uiso       1.00
      O144          O  0.5524810  0.1606880  0.0000000    0.00000       Uiso       1.00
      B145          B  0.4311100  0.5688930  0.0000000    0.00000       Uiso       1.00
      B146          B  0.5688930  0.4311100  0.0000000    0.00000       Uiso       1.00
      C147          C  0.0970450  0.5485220  0.0000000    0.00000       Uiso       1.00
      C148          C  0.0194640  0.5097310  0.0000000    0.00000       Uiso       1.00
      C149          C  0.9029560  0.4514770  0.0000000    0.00000       Uiso       1.00
      C150          C  0.9805370  0.4902670  0.0000000    0.00000       Uiso       1.00
