data_BCCTP-COF
_audit_creation_date              0000-00-00
_audit_creation_method            'LanYouShi'
_symmetry_space_group_name_H-M    'P1'
_cell_length_a                    22.8474007
_cell_length_b                    22.8474007
_cell_length_c                    3.5019000
_cell_angle_alpha                 90.0000000
_cell_angle_beta                  90.0000000
_cell_angle_gamma                 120.0000000
loop_
_atom_site_label
_atom_site_type_symbol
_atom_site_fract_x
_atom_site_fract_y
_atom_site_fract_z
_atom_site_U_iso_or_equiv
_atom_site_adp_type
_atom_site_occupancy
        C1          C  0.7405230  0.3702620  0.5000010    0.00000       Uiso       1.00
        C2          C  0.6297400  0.3702620  0.5000010    0.00000       Uiso       1.00
        C3          C  0.6297400  0.2594790  0.5000010    0.00000       Uiso       1.00
        C4          C  0.7014640  0.2985370  0.5000010    0.00000       Uiso       1.00
        C5          C  0.7014640  0.4029270  0.5000010    0.00000       Uiso       1.00
        C6          C  0.5970750  0.2985370  0.5000010    0.00000       Uiso       1.00
        H7          H  0.7267610  0.2732400  0.5000010    0.00000       Uiso       1.00
        H8          H  0.7267610  0.4535210  0.5000010    0.00000       Uiso       1.00
        H9          H  0.5464810  0.2732400  0.5000010    0.00000       Uiso       1.00
       C10          C  0.2594790  0.6297400  0.5000010    0.00000       Uiso       1.00
       C11          C  0.3702620  0.6297400  0.5000010    0.00000       Uiso       1.00
       C12          C  0.3702620  0.7405230  0.5000010    0.00000       Uiso       1.00
       C13          C  0.2985370  0.7014640  0.5000010    0.00000       Uiso       1.00
       C14          C  0.2985370  0.5970750  0.5000010    0.00000       Uiso       1.00
       C15          C  0.4029270  0.7014640  0.5000010    0.00000       Uiso       1.00
       H16          H  0.2732400  0.7267610  0.5000010    0.00000       Uiso       1.00
       H17          H  0.2732400  0.5464810  0.5000010    0.00000       Uiso       1.00
       H18          H  0.4535210  0.7267610  0.5000010    0.00000       Uiso       1.00
       C19          C  0.1863550  0.5931780  0.5000010    0.00000       Uiso       1.00
       C20          C  0.4068230  0.5931780  0.5000010    0.00000       Uiso       1.00
       C21          C  0.4068230  0.8136470  0.5000010    0.00000       Uiso       1.00
       C22          C  0.1467210  0.6253890  0.5000010    0.00000       Uiso       1.00
       C23          C  0.3746120  0.5213330  0.5000010    0.00000       Uiso       1.00
       C24          C  0.4786680  0.8532810  0.5000010    0.00000       Uiso       1.00
       C25          C  0.3746120  0.8532810  0.5000010    0.00000       Uiso       1.00
       C26          C  0.4786680  0.6253890  0.5000010    0.00000       Uiso       1.00
       C27          C  0.1467210  0.5213330  0.5000010    0.00000       Uiso       1.00
       C28          C  0.0755760  0.5898580  0.5000010    0.00000       Uiso       1.00
       C29          C  0.4101440  0.4857200  0.5000010    0.00000       Uiso       1.00
       C30          C  0.5142810  0.9244251  0.5000010    0.00000       Uiso       1.00
       C31          C  0.4101440  0.9244251  0.5000010    0.00000       Uiso       1.00
       C32          C  0.5142810  0.5898580  0.5000010    0.00000       Uiso       1.00
       C33          C  0.0755760  0.4857200  0.5000010    0.00000       Uiso       1.00
       C34          C  0.0363730  0.5181870  0.5000010    0.00000       Uiso       1.00
       C35          C  0.4818140  0.5181870  0.5000010    0.00000       Uiso       1.00
       C36          C  0.4818140  0.9636291  0.5000010    0.00000       Uiso       1.00
       C37          C  0.9636290  0.4818140  0.5000010    0.00000       Uiso       1.00
       C38          C  0.5181870  0.4818140  0.5000010    0.00000       Uiso       1.00
       C39          C  0.5181870  0.0363730  0.5000010    0.00000       Uiso       1.00
       C40          C  0.9244250  0.5142810  0.5000010    0.00000       Uiso       1.00
       C41          C  0.4857200  0.4101440  0.5000010    0.00000       Uiso       1.00
       C42          C  0.5898580  0.0755760  0.5000010    0.00000       Uiso       1.00
       C43          C  0.4857200  0.0755760  0.5000010    0.00000       Uiso       1.00
       C44          C  0.5898580  0.5142810  0.5000010    0.00000       Uiso       1.00
       C45          C  0.9244250  0.4101440  0.5000010    0.00000       Uiso       1.00
       C46          C  0.8532800  0.4786680  0.5000010    0.00000       Uiso       1.00
       C47          C  0.5213330  0.3746120  0.5000010    0.00000       Uiso       1.00
       C48          C  0.6253890  0.1467210  0.5000010    0.00000       Uiso       1.00
       C49          C  0.5213330  0.1467210  0.5000010    0.00000       Uiso       1.00
       C50          C  0.6253890  0.4786680  0.5000010    0.00000       Uiso       1.00
       C51          C  0.8532800  0.3746120  0.5000010    0.00000       Uiso       1.00
       C52          C  0.8136470  0.4068230  0.5000010    0.00000       Uiso       1.00
       C53          C  0.5931780  0.4068230  0.5000010    0.00000       Uiso       1.00
       C54          C  0.5931780  0.1863550  0.5000010    0.00000       Uiso       1.00
       H55          H  0.1679710  0.6765010  0.5000010    0.00000       Uiso       1.00
       H56          H  0.3235010  0.4914710  0.5000010    0.00000       Uiso       1.00
       H57          H  0.5085300  0.8320310  0.5000010    0.00000       Uiso       1.00
       H58          H  0.3235010  0.8320310  0.5000010    0.00000       Uiso       1.00
       H59          H  0.5085300  0.6765010  0.5000010    0.00000       Uiso       1.00
       H60          H  0.1679710  0.4914710  0.5000010    0.00000       Uiso       1.00
       H61          H  0.0536680  0.6191850  0.5000010    0.00000       Uiso       1.00
       H62          H  0.3808170  0.4344850  0.5000010    0.00000       Uiso       1.00
       H63          H  0.5655170  0.9463340  0.5000010    0.00000       Uiso       1.00
       H64          H  0.3808170  0.9463340  0.5000010    0.00000       Uiso       1.00
       H65          H  0.5655170  0.6191850  0.5000010    0.00000       Uiso       1.00
       H66          H  0.0536680  0.4344850  0.5000010    0.00000       Uiso       1.00
       H67          H  0.9463340  0.5655170  0.5000010    0.00000       Uiso       1.00
       H68          H  0.4344850  0.3808170  0.5000010    0.00000       Uiso       1.00
       H69          H  0.6191850  0.0536680  0.5000010    0.00000       Uiso       1.00
       H70          H  0.4344850  0.0536680  0.5000010    0.00000       Uiso       1.00
       H71          H  0.6191850  0.5655170  0.5000010    0.00000       Uiso       1.00
       H72          H  0.9463340  0.3808170  0.5000010    0.00000       Uiso       1.00
       H73          H  0.8320310  0.5085300  0.5000010    0.00000       Uiso       1.00
       H74          H  0.4914710  0.3235010  0.5000010    0.00000       Uiso       1.00
       H75          H  0.6765010  0.1679710  0.5000010    0.00000       Uiso       1.00
       H76          H  0.4914710  0.1679710  0.5000010    0.00000       Uiso       1.00
       H77          H  0.6765010  0.5085300  0.5000010    0.00000       Uiso       1.00
       H78          H  0.8320310  0.3235010  0.5000010    0.00000       Uiso       1.00
