data_Salen-COF
_audit_creation_date              0000-00-00
_audit_creation_method            'LanYouShi'
_symmetry_space_group_name_H-M    'P1'
_cell_length_a                    37.5250015
_cell_length_b                    37.5250015
_cell_length_c                    5.4229999
_cell_angle_alpha                 90.0000000
_cell_angle_beta                  90.0000000
_cell_angle_gamma                 120.0000000
loop_
_atom_site_label
_atom_site_type_symbol
_atom_site_fract_x
_atom_site_fract_y
_atom_site_fract_z
_atom_site_U_iso_or_equiv
_atom_site_adp_type
_atom_site_occupancy
       xx1          C -0.2905500  0.3593800  0.3534200    0.00000       Uiso       1.00
       xx2          C  0.6833900  0.3760900  0.3541100    0.00000       Uiso       1.00
       xx3          C -0.2469200  0.3859500  0.3230000    0.00000       Uiso       1.00
       xx4          C -0.2106600  0.4080600  0.2855000    0.00000       Uiso       1.00
       xx5          C -0.1678100  0.4342800  0.2271600    0.00000       Uiso       1.00
       xx6          C -0.1546400  0.4726700  0.1199900    0.00000       Uiso       1.00
       xx7          C -0.1134600  0.4979800  0.0415200    0.00000       Uiso       1.00
       xx8          C -0.0862900  0.4818800  0.0628000    0.00000       Uiso       1.00
       xx9          C -0.0992300  0.4440600  0.1877600    0.00000       Uiso       1.00
      xx10          C -0.1401100  0.4204200  0.2647500    0.00000       Uiso       1.00
      xx11          C -0.0999700  0.5399700 -0.0848400    0.00000       Uiso       1.00
      xx12          C -0.1290800  0.5570300 -0.0233500    0.00000       Uiso       1.00
      xx13          C -0.1008400  0.5340400 -0.3653700    0.00000       Uiso       1.00
      xx14          C -0.0559700  0.5733300 -0.0056400    0.00000       Uiso       1.00
      xx15          C -0.0715000  0.4275900  0.2381700    0.00000       Uiso       1.00
      xx16          N -0.0336500  0.4514900  0.3072200    0.00000       Uiso       1.00
      xx17          C -0.0057200  0.4359900  0.3634100    0.00000       Uiso       1.00
      xx18          O -0.0480300  0.5023200 -0.0547900    0.00000       Uiso       1.00
      xx19          H  0.6963400  0.4091700  0.3446500    0.00000       Uiso       1.00
      xx20          H -0.1774700  0.4818100  0.0946400    0.00000       Uiso       1.00
      xx21          H -0.1505500  0.3908300  0.3523600    0.00000       Uiso       1.00
      xx22          H -0.1329700  0.5579600  0.1790600    0.00000       Uiso       1.00
      xx23          H -0.1597600  0.5383900 -0.1106300    0.00000       Uiso       1.00
      xx24          H -0.1167400  0.5887400 -0.0962800    0.00000       Uiso       1.00
      xx25          H -0.1324100  0.5111100 -0.4258500    0.00000       Uiso       1.00
      xx26          H -0.0796600  0.5229500 -0.4227300    0.00000       Uiso       1.00
      xx27          H -0.0915500  0.5636000 -0.4607500    0.00000       Uiso       1.00
      xx28          H -0.0319900  0.5712200 -0.1132000    0.00000       Uiso       1.00
      xx29          H -0.0507500  0.5708100  0.1932100    0.00000       Uiso       1.00
      xx30          H -0.0502800  0.6049300 -0.0403500    0.00000       Uiso       1.00
      xx31          H -0.0842100  0.3945200  0.2334400    0.00000       Uiso       1.00
      xx32          H  0.0224700  0.4525900  0.2489200    0.00000       Uiso       1.00
      xx33          H -0.0201200  0.4027000  0.3175200    0.00000       Uiso       1.00
      xx34          H -0.0350900  0.4848200 -0.0886100    0.00000       Uiso       1.00
      xx35          C  0.6406200  0.3500700  0.3534200    0.00000       Uiso       1.00
      xx36          C  0.6239100  0.3073000  0.3541100    0.00000       Uiso       1.00
      xx37          C  0.6140500  0.3671300  0.3230000    0.00000       Uiso       1.00
      xx38          C  0.5919400  0.3812800  0.2855000    0.00000       Uiso       1.00
      xx39          C  0.5657200  0.3979100  0.2271600    0.00000       Uiso       1.00
      xx40          C  0.5273300  0.3726900  0.1199900    0.00000       Uiso       1.00
      xx41          C  0.5020200  0.3885600  0.0415200    0.00000       Uiso       1.00
      xx42          C  0.5181200  0.4318300  0.0628000    0.00000       Uiso       1.00
      xx43          C  0.5559400  0.4567100  0.1877600    0.00000       Uiso       1.00
      xx44          C  0.5795800  0.4394700  0.2647500    0.00000       Uiso       1.00
      xx45          C  0.4600300  0.3600600 -0.0848400    0.00000       Uiso       1.00
      xx46          C  0.4429700  0.3138900 -0.0233500    0.00000       Uiso       1.00
      xx47          C  0.4659600  0.3651200 -0.3653700    0.00000       Uiso       1.00
      xx48          C  0.4266700  0.3707000 -0.0056400    0.00000       Uiso       1.00
      xx49          C  0.5724100  0.5009100  0.2381700    0.00000       Uiso       1.00
      xx50          N  0.5485100  0.5148600  0.3072200    0.00000       Uiso       1.00
      xx51          C  0.5640100  0.5582900  0.3634100    0.00000       Uiso       1.00
      xx52          O  0.4976800  0.4496500 -0.0547900    0.00000       Uiso       1.00
      xx53          H  0.5908300  0.2871700  0.3446500    0.00000       Uiso       1.00
      xx54          H  0.5181900  0.3407200  0.0946400    0.00000       Uiso       1.00
      xx55          H  0.6091700  0.4586200  0.3523600    0.00000       Uiso       1.00
      xx56          H  0.4420400  0.3090700  0.1790600    0.00000       Uiso       1.00
      xx57          H  0.4616100  0.3018500 -0.1106300    0.00000       Uiso       1.00
      xx58          H  0.4112600  0.2945200 -0.0962800    0.00000       Uiso       1.00
      xx59          H  0.4888900  0.3564800 -0.4258500    0.00000       Uiso       1.00
      xx60          H  0.4770500  0.3973900 -0.4227300    0.00000       Uiso       1.00
      xx61          H  0.4364000  0.3448500 -0.4607500    0.00000       Uiso       1.00
      xx62          H  0.4287800  0.3967900 -0.1132000    0.00000       Uiso       1.00
      xx63          H  0.4291900  0.3784400  0.1932100    0.00000       Uiso       1.00
      xx64          H  0.3950700  0.3447900 -0.0403500    0.00000       Uiso       1.00
      xx65          H  0.6054800  0.5212700  0.2334400    0.00000       Uiso       1.00
      xx66          H  0.5474100  0.5698800  0.2489200    0.00000       Uiso       1.00
      xx67          H  0.5973000  0.5771800  0.3175200    0.00000       Uiso       1.00
      xx68          H  0.5151800  0.4800900 -0.0886100    0.00000       Uiso       1.00
      xx69          C  0.6499300  0.2905500  0.3534200    0.00000       Uiso       1.00
      xx70          C -0.3073000  0.3166100  0.3541100    0.00000       Uiso       1.00
      xx71          C  0.6328700  0.2469200  0.3230000    0.00000       Uiso       1.00
      xx72          C  0.6187200  0.2106600  0.2855000    0.00000       Uiso       1.00
      xx73          C  0.6020900  0.1678100  0.2271600    0.00000       Uiso       1.00
      xx74          C  0.6273100  0.1546400  0.1199900    0.00000       Uiso       1.00
      xx75          C  0.6114400  0.1134600  0.0415200    0.00000       Uiso       1.00
      xx76          C  0.5681700  0.0862900  0.0628000    0.00000       Uiso       1.00
      xx77          C  0.5432900  0.0992300  0.1877600    0.00000       Uiso       1.00
      xx78          C  0.5605300  0.1401100  0.2647500    0.00000       Uiso       1.00
      xx79          C  0.6399400  0.0999700 -0.0848400    0.00000       Uiso       1.00
      xx80          C  0.6861100  0.1290800 -0.0233500    0.00000       Uiso       1.00
      xx81          C  0.6348800  0.1008400 -0.3653700    0.00000       Uiso       1.00
      xx82          C  0.6293000  0.0559700 -0.0056400    0.00000       Uiso       1.00
      xx83          C  0.4990900  0.0715000  0.2381700    0.00000       Uiso       1.00
      xx84          N  0.4851400  0.0336500  0.3072200    0.00000       Uiso       1.00
      xx85          C  0.4417100  0.0057200  0.3634100    0.00000       Uiso       1.00
      xx86          O  0.5503500  0.0480300 -0.0547900    0.00000       Uiso       1.00
      xx87          H -0.2871700  0.3036600  0.3446500    0.00000       Uiso       1.00
      xx88          H  0.6592800  0.1774700  0.0946400    0.00000       Uiso       1.00
      xx89          H  0.5413800  0.1505500  0.3523600    0.00000       Uiso       1.00
      xx90          H  0.6909300  0.1329700  0.1790600    0.00000       Uiso       1.00
      xx91          H  0.6981500  0.1597600 -0.1106300    0.00000       Uiso       1.00
      xx92          H  0.7054800  0.1167400 -0.0962800    0.00000       Uiso       1.00
      xx93          H  0.6435200  0.1324100 -0.4258500    0.00000       Uiso       1.00
      xx94          H  0.6026100  0.0796600 -0.4227300    0.00000       Uiso       1.00
      xx95          H  0.6551500  0.0915500 -0.4607500    0.00000       Uiso       1.00
      xx96          H  0.6032100  0.0319900 -0.1132000    0.00000       Uiso       1.00
      xx97          H  0.6215600  0.0507500  0.1932100    0.00000       Uiso       1.00
      xx98          H  0.6552100  0.0502800 -0.0403500    0.00000       Uiso       1.00
      xx99          H  0.4787300  0.0842100  0.2334400    0.00000       Uiso       1.00
     xx100          H  0.4301200 -0.0224700  0.2489200    0.00000       Uiso       1.00
     xx101          H  0.4228200  0.0201200  0.3175200    0.00000       Uiso       1.00
     xx102          H  0.5199100  0.0350900 -0.0886100    0.00000       Uiso       1.00
     xx103          C  0.3593800 -0.2905500  0.6465800    0.00000       Uiso       1.00
     xx104          C  0.3760900  0.6833900  0.6458900    0.00000       Uiso       1.00
     xx105          C  0.3859500 -0.2469200  0.6770000    0.00000       Uiso       1.00
     xx106          C  0.4080600 -0.2106600  0.7145000    0.00000       Uiso       1.00
     xx107          C  0.4342800 -0.1678100  0.7728401    0.00000       Uiso       1.00
     xx108          C  0.4726700 -0.1546400  0.8800100    0.00000       Uiso       1.00
     xx109          C  0.4979800 -0.1134600  0.9584800    0.00000       Uiso       1.00
     xx110          C  0.4818800 -0.0862900  0.9372000    0.00000       Uiso       1.00
     xx111          C  0.4440600 -0.0992300  0.8122400    0.00000       Uiso       1.00
     xx112          C  0.4204200 -0.1401100  0.7352500    0.00000       Uiso       1.00
     xx113          C  0.5399700 -0.0999700  1.0848401    0.00000       Uiso       1.00
     xx114          C  0.5570300 -0.1290800  1.0233500    0.00000       Uiso       1.00
     xx115          C  0.5340400 -0.1008400  1.3653700    0.00000       Uiso       1.00
     xx116          C  0.5733300 -0.0559700  1.0056400    0.00000       Uiso       1.00
     xx117          C  0.4275900 -0.0715000  0.7618300    0.00000       Uiso       1.00
     xx118          N  0.4514900 -0.0336500  0.6927800    0.00000       Uiso       1.00
     xx119          C  0.4359900 -0.0057200  0.6365900    0.00000       Uiso       1.00
     xx120          O  0.5023200 -0.0480300  1.0547900    0.00000       Uiso       1.00
     xx121          H  0.4091700  0.6963400  0.6553500    0.00000       Uiso       1.00
     xx122          H  0.4818100 -0.1774700  0.9053600    0.00000       Uiso       1.00
     xx123          H  0.3908300 -0.1505500  0.6476400    0.00000       Uiso       1.00
     xx124          H  0.5579600 -0.1329700  0.8209400    0.00000       Uiso       1.00
     xx125          H  0.5383900 -0.1597600  1.1106300    0.00000       Uiso       1.00
     xx126          H  0.5887400 -0.1167400  1.0962800    0.00000       Uiso       1.00
     xx127          H  0.5111100 -0.1324100  1.4258500    0.00000       Uiso       1.00
     xx128          H  0.5229500 -0.0796600  1.4227300    0.00000       Uiso       1.00
     xx129          H  0.5636000 -0.0915500  1.4607500    0.00000       Uiso       1.00
     xx130          H  0.5712200 -0.0319900  1.1131999    0.00000       Uiso       1.00
     xx131          H  0.5708100 -0.0507500  0.8067901    0.00000       Uiso       1.00
     xx132          H  0.6049300 -0.0502800  1.0403500    0.00000       Uiso       1.00
     xx133          H  0.3945200 -0.0842100  0.7665600    0.00000       Uiso       1.00
     xx134          H  0.4525900  0.0224700  0.7510800    0.00000       Uiso       1.00
     xx135          H  0.4027000 -0.0201200  0.6824800    0.00000       Uiso       1.00
     xx136          H  0.4848200 -0.0350900  1.0886101    0.00000       Uiso       1.00
     xx137          C  0.3500700  0.6406200  0.6465800    0.00000       Uiso       1.00
     xx138          C  0.3073000  0.6239100  0.6458900    0.00000       Uiso       1.00
     xx139          C  0.3671300  0.6140500  0.6770000    0.00000       Uiso       1.00
     xx140          C  0.3812800  0.5919400  0.7145000    0.00000       Uiso       1.00
     xx141          C  0.3979100  0.5657200  0.7728401    0.00000       Uiso       1.00
     xx142          C  0.3726900  0.5273300  0.8800100    0.00000       Uiso       1.00
     xx143          C  0.3885600  0.5020200  0.9584800    0.00000       Uiso       1.00
     xx144          C  0.4318300  0.5181200  0.9372000    0.00000       Uiso       1.00
     xx145          C  0.4567100  0.5559400  0.8122400    0.00000       Uiso       1.00
     xx146          C  0.4394700  0.5795800  0.7352500    0.00000       Uiso       1.00
     xx147          C  0.3600600  0.4600300  1.0848401    0.00000       Uiso       1.00
     xx148          C  0.3138900  0.4429700  1.0233500    0.00000       Uiso       1.00
     xx149          C  0.3651200  0.4659600  1.3653700    0.00000       Uiso       1.00
     xx150          C  0.3707000  0.4266700  1.0056400    0.00000       Uiso       1.00
     xx151          C  0.5009100  0.5724100  0.7618300    0.00000       Uiso       1.00
     xx152          N  0.5148600  0.5485100  0.6927800    0.00000       Uiso       1.00
     xx153          C  0.5582900  0.5640100  0.6365900    0.00000       Uiso       1.00
     xx154          O  0.4496500  0.4976800  1.0547900    0.00000       Uiso       1.00
     xx155          H  0.2871700  0.5908300  0.6553500    0.00000       Uiso       1.00
     xx156          H  0.3407200  0.5181900  0.9053600    0.00000       Uiso       1.00
     xx157          H  0.4586200  0.6091700  0.6476400    0.00000       Uiso       1.00
     xx158          H  0.3090700  0.4420400  0.8209400    0.00000       Uiso       1.00
     xx159          H  0.3018500  0.4616100  1.1106300    0.00000       Uiso       1.00
     xx160          H  0.2945200  0.4112600  1.0962800    0.00000       Uiso       1.00
     xx161          H  0.3564800  0.4888900  1.4258500    0.00000       Uiso       1.00
     xx162          H  0.3973900  0.4770500  1.4227300    0.00000       Uiso       1.00
     xx163          H  0.3448500  0.4364000  1.4607500    0.00000       Uiso       1.00
     xx164          H  0.3967900  0.4287800  1.1131999    0.00000       Uiso       1.00
     xx165          H  0.3784400  0.4291900  0.8067901    0.00000       Uiso       1.00
     xx166          H  0.3447900  0.3950700  1.0403500    0.00000       Uiso       1.00
     xx167          H  0.5212700  0.6054800  0.7665600    0.00000       Uiso       1.00
     xx168          H  0.5698800  0.5474100  0.7510800    0.00000       Uiso       1.00
     xx169          H  0.5771800  0.5973000  0.6824800    0.00000       Uiso       1.00
     xx170          H  0.4800900  0.5151800  1.0886101    0.00000       Uiso       1.00
     xx171          C  0.2905500  0.6499300  0.6465800    0.00000       Uiso       1.00
     xx172          C  0.3166100 -0.3073000  0.6458900    0.00000       Uiso       1.00
     xx173          C  0.2469200  0.6328700  0.6770000    0.00000       Uiso       1.00
     xx174          C  0.2106600  0.6187200  0.7145000    0.00000       Uiso       1.00
     xx175          C  0.1678100  0.6020900  0.7728401    0.00000       Uiso       1.00
     xx176          C  0.1546400  0.6273100  0.8800100    0.00000       Uiso       1.00
     xx177          C  0.1134600  0.6114400  0.9584800    0.00000       Uiso       1.00
     xx178          C  0.0862900  0.5681700  0.9372000    0.00000       Uiso       1.00
     xx179          C  0.0992300  0.5432900  0.8122400    0.00000       Uiso       1.00
     xx180          C  0.1401100  0.5605300  0.7352500    0.00000       Uiso       1.00
     xx181          C  0.0999700  0.6399400  1.0848401    0.00000       Uiso       1.00
     xx182          C  0.1290800  0.6861100  1.0233500    0.00000       Uiso       1.00
     xx183          C  0.1008400  0.6348800  1.3653700    0.00000       Uiso       1.00
     xx184          C  0.0559700  0.6293000  1.0056400    0.00000       Uiso       1.00
     xx185          C  0.0715000  0.4990900  0.7618300    0.00000       Uiso       1.00
     xx186          N  0.0336500  0.4851400  0.6927800    0.00000       Uiso       1.00
     xx187          C  0.0057200  0.4417100  0.6365900    0.00000       Uiso       1.00
     xx188          O  0.0480300  0.5503500  1.0547900    0.00000       Uiso       1.00
     xx189          H  0.3036600 -0.2871700  0.6553500    0.00000       Uiso       1.00
     xx190          H  0.1774700  0.6592800  0.9053600    0.00000       Uiso       1.00
     xx191          H  0.1505500  0.5413800  0.6476400    0.00000       Uiso       1.00
     xx192          H  0.1329700  0.6909300  0.8209400    0.00000       Uiso       1.00
     xx193          H  0.1597600  0.6981500  1.1106300    0.00000       Uiso       1.00
     xx194          H  0.1167400  0.7054800  1.0962800    0.00000       Uiso       1.00
     xx195          H  0.1324100  0.6435200  1.4258500    0.00000       Uiso       1.00
     xx196          H  0.0796600  0.6026100  1.4227300    0.00000       Uiso       1.00
     xx197          H  0.0915500  0.6551500  1.4607500    0.00000       Uiso       1.00
     xx198          H  0.0319900  0.6032100  1.1131999    0.00000       Uiso       1.00
     xx199          H  0.0507500  0.6215600  0.8067901    0.00000       Uiso       1.00
     xx200          H  0.0502800  0.6552100  1.0403500    0.00000       Uiso       1.00
     xx201          H  0.0842100  0.4787300  0.7665600    0.00000       Uiso       1.00
     xx202          H -0.0224700  0.4301200  0.7510800    0.00000       Uiso       1.00
     xx203          H  0.0201200  0.4228200  0.6824800    0.00000       Uiso       1.00
     xx204          H  0.0350900  0.5199100  1.0886101    0.00000       Uiso       1.00
