data_Star-COF-3-total_ff
_audit_creation_date              0000-00-00
_audit_creation_method            'LanYouShi'
_symmetry_space_group_name_H-M    'P1'
_cell_length_a                    46.8300018
_cell_length_b                    46.8300018
_cell_length_c                    3.4100001
_cell_angle_alpha                 90.0000000
_cell_angle_beta                  90.0000000
_cell_angle_gamma                 120.0000000
loop_
_atom_site_label
_atom_site_type_symbol
_atom_site_fract_x
_atom_site_fract_y
_atom_site_fract_z
_atom_site_U_iso_or_equiv
_atom_site_adp_type
_atom_site_occupancy
        C1          C  0.0188300  0.5094150  0.5000000    0.00000       Uiso       1.00
        C2          C  0.0894720  0.5447360  0.5000000    0.00000       Uiso       1.00
        B3          B  0.1284490  0.5642240  0.5000000    0.00000       Uiso       1.00
        C4          C  0.4905850  0.5094150  0.5000000    0.00000       Uiso       1.00
        C5          C  0.4552640  0.5447360  0.5000000    0.00000       Uiso       1.00
        B6          B  0.4357760  0.5642240  0.5000000    0.00000       Uiso       1.00
        C7          C  0.4905850  0.9811700  0.5000000    0.00000       Uiso       1.00
        C8          C  0.4552640  0.9105281  0.5000000    0.00000       Uiso       1.00
        B9          B  0.4357760  0.8715510  0.5000000    0.00000       Uiso       1.00
       C10          C  0.9811699  0.4905850  0.5000000    0.00000       Uiso       1.00
       C11          C  0.9105280  0.4552640  0.5000000    0.00000       Uiso       1.00
       B12          B  0.8715510  0.4357760  0.5000000    0.00000       Uiso       1.00
       C13          C  0.5094150  0.4905850  0.5000000    0.00000       Uiso       1.00
       C14          C  0.5447360  0.4552640  0.5000000    0.00000       Uiso       1.00
       B15          B  0.5642240  0.4357760  0.5000000    0.00000       Uiso       1.00
       C16          C  0.5094150  0.0188300  0.5000000    0.00000       Uiso       1.00
       C17          C  0.5447360  0.0894720  0.5000000    0.00000       Uiso       1.00
       B18          B  0.5642240  0.1284490  0.5000000    0.00000       Uiso       1.00
       C19          C  0.0372700  0.5443830  0.5000000    0.00000       Uiso       1.00
       C20          C  0.0718630  0.5616140  0.5000000    0.00000       Uiso       1.00
       C21          C  0.1800390  0.6047500  0.5000000    0.00000       Uiso       1.00
       C22          C  0.2095280  0.6351980  0.5000000    0.00000       Uiso       1.00
       C23          C  0.2094390  0.6651530  0.5000000    0.00000       Uiso       1.00
       C24          C  0.2390500  0.6955330  0.5000000    0.00000       Uiso       1.00
       C25          C  0.2699780  0.6971460  0.5000000    0.00000       Uiso       1.00
       C26          C  0.2692130  0.6664980  0.5000000    0.00000       Uiso       1.00
       C27          C  0.2398830  0.6354040  0.5000000    0.00000       Uiso       1.00
       O28          O  0.1483620  0.6003230  0.5000000    0.00000       Uiso       1.00
       H29          H  0.0257030  0.5592700  0.5000000    0.00000       Uiso       1.00
       H30          H  0.0848230  0.5883240  0.5000000    0.00000       Uiso       1.00
       H31          H  0.1863130  0.6651600  0.5000000    0.00000       Uiso       1.00
       H32          H  0.2370390  0.7174670  0.5000000    0.00000       Uiso       1.00
       H33          H  0.2916500  0.6667450  0.5000000    0.00000       Uiso       1.00
       C34          C  0.4556170  0.4928870  0.5000000    0.00000       Uiso       1.00
       C35          C  0.4383860  0.5102480  0.5000000    0.00000       Uiso       1.00
       C36          C  0.3952500  0.5752890  0.5000000    0.00000       Uiso       1.00
       C37          C  0.3648020  0.5743300  0.5000000    0.00000       Uiso       1.00
       C38          C  0.3348470  0.5442850  0.5000000    0.00000       Uiso       1.00
       C39          C  0.3044670  0.5435170  0.5000000    0.00000       Uiso       1.00
       C40          C  0.3028540  0.5728330  0.5000000    0.00000       Uiso       1.00
       C41          C  0.3335020  0.6027150  0.5000000    0.00000       Uiso       1.00
       C42          C  0.3645960  0.6044790  0.5000000    0.00000       Uiso       1.00
       O43          O  0.3996770  0.5480400  0.5000000    0.00000       Uiso       1.00
       H44          H  0.4407300  0.4664330  0.5000000    0.00000       Uiso       1.00
       H45          H  0.4116760  0.4964980  0.5000000    0.00000       Uiso       1.00
       H46          H  0.3348400  0.5211540  0.5000000    0.00000       Uiso       1.00
       H47          H  0.2825330  0.5195720  0.5000000    0.00000       Uiso       1.00
       H48          H  0.3332550  0.6249050  0.5000000    0.00000       Uiso       1.00
       C49          C  0.5071130  0.9627300  0.5000000    0.00000       Uiso       1.00
       C50          C  0.4897510  0.9281370  0.5000000    0.00000       Uiso       1.00
       C51          C  0.4247110  0.8199610  0.5000000    0.00000       Uiso       1.00
       C52          C  0.4256700  0.7904719  0.5000000    0.00000       Uiso       1.00
       C53          C  0.4557150  0.7905610  0.5000000    0.00000       Uiso       1.00
       C54          C  0.4564830  0.7609500  0.5000000    0.00000       Uiso       1.00
       C55          C  0.4271670  0.7300210  0.5000000    0.00000       Uiso       1.00
       C56          C  0.3972850  0.7307870  0.5000000    0.00000       Uiso       1.00
       C57          C  0.3955210  0.7601170  0.5000000    0.00000       Uiso       1.00
       O58          O  0.4519600  0.8516371  0.5000000    0.00000       Uiso       1.00
       H59          H  0.5335670  0.9742970  0.5000000    0.00000       Uiso       1.00
       H60          H  0.5035020  0.9151770  0.5000000    0.00000       Uiso       1.00
       H61          H  0.4788460  0.8136870  0.5000000    0.00000       Uiso       1.00
       H62          H  0.4804280  0.7629610  0.5000000    0.00000       Uiso       1.00
       H63          H  0.3750950  0.7083500  0.5000000    0.00000       Uiso       1.00
       C64          C  0.9627300  0.4556170  0.5000000    0.00000       Uiso       1.00
       C65          C  0.9281370  0.4383860  0.5000000    0.00000       Uiso       1.00
       C66          C  0.8199610  0.3952500  0.5000000    0.00000       Uiso       1.00
       C67          C  0.7904720  0.3648020  0.5000000    0.00000       Uiso       1.00
       C68          C  0.7905610  0.3348470  0.5000000    0.00000       Uiso       1.00
       C69          C  0.7609500  0.3044670  0.5000000    0.00000       Uiso       1.00
       C70          C  0.7300210  0.3028540  0.5000000    0.00000       Uiso       1.00
       C71          C  0.7307870  0.3335020  0.5000000    0.00000       Uiso       1.00
       C72          C  0.7601170  0.3645960  0.5000000    0.00000       Uiso       1.00
       O73          O  0.8516380  0.3996770  0.5000000    0.00000       Uiso       1.00
       H74          H  0.9742970  0.4407300  0.5000000    0.00000       Uiso       1.00
       H75          H  0.9151770  0.4116760  0.5000000    0.00000       Uiso       1.00
       H76          H  0.8136860  0.3348400  0.5000000    0.00000       Uiso       1.00
       H77          H  0.7629610  0.2825330  0.5000000    0.00000       Uiso       1.00
       H78          H  0.7083500  0.3332550  0.5000000    0.00000       Uiso       1.00
       C79          C  0.5443830  0.5071130  0.5000000    0.00000       Uiso       1.00
       C80          C  0.5616140  0.4897510  0.5000000    0.00000       Uiso       1.00
       C81          C  0.6047500  0.4247110  0.5000000    0.00000       Uiso       1.00
       C82          C  0.6351980  0.4256700  0.5000000    0.00000       Uiso       1.00
       C83          C  0.6651530  0.4557150  0.5000000    0.00000       Uiso       1.00
       C84          C  0.6955330  0.4564830  0.5000000    0.00000       Uiso       1.00
       C85          C  0.6971460  0.4271670  0.5000000    0.00000       Uiso       1.00
       C86          C  0.6664980  0.3972850  0.5000000    0.00000       Uiso       1.00
       C87          C  0.6354040  0.3955210  0.5000000    0.00000       Uiso       1.00
       O88          O  0.6003230  0.4519600  0.5000000    0.00000       Uiso       1.00
       H89          H  0.5592700  0.5335670  0.5000000    0.00000       Uiso       1.00
       H90          H  0.5883240  0.5035020  0.5000000    0.00000       Uiso       1.00
       H91          H  0.6651600  0.4788460  0.5000000    0.00000       Uiso       1.00
       H92          H  0.7174670  0.4804280  0.5000000    0.00000       Uiso       1.00
       H93          H  0.6667450  0.3750950  0.5000000    0.00000       Uiso       1.00
       C94          C  0.4928870  0.0372700  0.5000000    0.00000       Uiso       1.00
       C95          C  0.5102480  0.0718630  0.5000000    0.00000       Uiso       1.00
       C96          C  0.5752890  0.1800390  0.5000000    0.00000       Uiso       1.00
       C97          C  0.5743300  0.2095280  0.5000000    0.00000       Uiso       1.00
       C98          C  0.5442850  0.2094390  0.5000000    0.00000       Uiso       1.00
       C99          C  0.5435170  0.2390500  0.5000000    0.00000       Uiso       1.00
      C100          C  0.5728330  0.2699790  0.5000000    0.00000       Uiso       1.00
      C101          C  0.6027150  0.2692130  0.5000000    0.00000       Uiso       1.00
      C102          C  0.6044790  0.2398830  0.5000000    0.00000       Uiso       1.00
      O103          O  0.5480400  0.1483620  0.5000000    0.00000       Uiso       1.00
      H104          H  0.4664330  0.0257030  0.5000000    0.00000       Uiso       1.00
      H105          H  0.4964980  0.0848230  0.5000000    0.00000       Uiso       1.00
      H106          H  0.5211540  0.1863130  0.5000000    0.00000       Uiso       1.00
      H107          H  0.5195720  0.2370390  0.5000000    0.00000       Uiso       1.00
      H108          H  0.6249050  0.2916500  0.5000000    0.00000       Uiso       1.00
      C109          C  0.5443830  0.0372700  0.5000000    0.00000       Uiso       1.00
      C110          C  0.5616140  0.0718630  0.5000000    0.00000       Uiso       1.00
      C111          C  0.6047500  0.1800390  0.5000000    0.00000       Uiso       1.00
      C112          C  0.6351980  0.2095280  0.5000000    0.00000       Uiso       1.00
      C113          C  0.6651530  0.2094390  0.5000000    0.00000       Uiso       1.00
      C114          C  0.6955330  0.2390500  0.5000000    0.00000       Uiso       1.00
      C115          C  0.6971460  0.2699790  0.5000000    0.00000       Uiso       1.00
      C116          C  0.6664980  0.2692130  0.5000000    0.00000       Uiso       1.00
      C117          C  0.6354040  0.2398830  0.5000000    0.00000       Uiso       1.00
      O118          O  0.6003230  0.1483620  0.5000000    0.00000       Uiso       1.00
      H119          H  0.5592700  0.0257030  0.5000000    0.00000       Uiso       1.00
      H120          H  0.5883240  0.0848230  0.5000000    0.00000       Uiso       1.00
      H121          H  0.6651600  0.1863130  0.5000000    0.00000       Uiso       1.00
      H122          H  0.7174670  0.2370390  0.5000000    0.00000       Uiso       1.00
      H123          H  0.6667450  0.2916500  0.5000000    0.00000       Uiso       1.00
      C124          C  0.4928870  0.4556170  0.5000000    0.00000       Uiso       1.00
      C125          C  0.5102480  0.4383860  0.5000000    0.00000       Uiso       1.00
      C126          C  0.5752890  0.3952500  0.5000000    0.00000       Uiso       1.00
      C127          C  0.5743300  0.3648020  0.5000000    0.00000       Uiso       1.00
      C128          C  0.5442850  0.3348470  0.5000000    0.00000       Uiso       1.00
      C129          C  0.5435170  0.3044670  0.5000000    0.00000       Uiso       1.00
      C130          C  0.5728330  0.3028540  0.5000000    0.00000       Uiso       1.00
      C131          C  0.6027150  0.3335020  0.5000000    0.00000       Uiso       1.00
      C132          C  0.6044790  0.3645960  0.5000000    0.00000       Uiso       1.00
      O133          O  0.5480400  0.3996770  0.5000000    0.00000       Uiso       1.00
      H134          H  0.4664330  0.4407300  0.5000000    0.00000       Uiso       1.00
      H135          H  0.4964980  0.4116760  0.5000000    0.00000       Uiso       1.00
      H136          H  0.5211540  0.3348400  0.5000000    0.00000       Uiso       1.00
      H137          H  0.5195720  0.2825330  0.5000000    0.00000       Uiso       1.00
      H138          H  0.6249050  0.3332550  0.5000000    0.00000       Uiso       1.00
      C139          C  0.9627301  0.5071130  0.5000000    0.00000       Uiso       1.00
      C140          C  0.9281370  0.4897510  0.5000000    0.00000       Uiso       1.00
      C141          C  0.8199610  0.4247110  0.5000000    0.00000       Uiso       1.00
      C142          C  0.7904720  0.4256700  0.5000000    0.00000       Uiso       1.00
      C143          C  0.7905610  0.4557150  0.5000000    0.00000       Uiso       1.00
      C144          C  0.7609500  0.4564830  0.5000000    0.00000       Uiso       1.00
      C145          C  0.7300210  0.4271670  0.5000000    0.00000       Uiso       1.00
      C146          C  0.7307870  0.3972850  0.5000000    0.00000       Uiso       1.00
      C147          C  0.7601170  0.3955210  0.5000000    0.00000       Uiso       1.00
      O148          O  0.8516370  0.4519600  0.5000000    0.00000       Uiso       1.00
      H149          H  0.9742970  0.5335670  0.5000000    0.00000       Uiso       1.00
      H150          H  0.9151770  0.5035020  0.5000000    0.00000       Uiso       1.00
      H151          H  0.8136860  0.4788460  0.5000000    0.00000       Uiso       1.00
      H152          H  0.7629610  0.4804280  0.5000000    0.00000       Uiso       1.00
      H153          H  0.7083500  0.3750950  0.5000000    0.00000       Uiso       1.00
      C154          C  0.4556170  0.9627300  0.5000000    0.00000       Uiso       1.00
      C155          C  0.4383860  0.9281370  0.5000000    0.00000       Uiso       1.00
      C156          C  0.3952500  0.8199610  0.5000000    0.00000       Uiso       1.00
      C157          C  0.3648020  0.7904719  0.5000000    0.00000       Uiso       1.00
      C158          C  0.3348470  0.7905610  0.5000000    0.00000       Uiso       1.00
      C159          C  0.3044670  0.7609500  0.5000000    0.00000       Uiso       1.00
      C160          C  0.3028540  0.7300210  0.5000000    0.00000       Uiso       1.00
      C161          C  0.3335020  0.7307870  0.5000000    0.00000       Uiso       1.00
      C162          C  0.3645960  0.7601170  0.5000000    0.00000       Uiso       1.00
      O163          O  0.3996770  0.8516371  0.5000000    0.00000       Uiso       1.00
      H164          H  0.4407300  0.9742970  0.5000000    0.00000       Uiso       1.00
      H165          H  0.4116760  0.9151770  0.5000000    0.00000       Uiso       1.00
      H166          H  0.3348400  0.8136870  0.5000000    0.00000       Uiso       1.00
      H167          H  0.2825330  0.7629610  0.5000000    0.00000       Uiso       1.00
      H168          H  0.3332550  0.7083500  0.5000000    0.00000       Uiso       1.00
      C169          C  0.5071130  0.5443830  0.5000000    0.00000       Uiso       1.00
      C170          C  0.4897510  0.5616140  0.5000000    0.00000       Uiso       1.00
      C171          C  0.4247110  0.6047500  0.5000000    0.00000       Uiso       1.00
      C172          C  0.4256700  0.6351980  0.5000000    0.00000       Uiso       1.00
      C173          C  0.4557150  0.6651530  0.5000000    0.00000       Uiso       1.00
      C174          C  0.4564830  0.6955330  0.5000000    0.00000       Uiso       1.00
      C175          C  0.4271670  0.6971460  0.5000000    0.00000       Uiso       1.00
      C176          C  0.3972850  0.6664980  0.5000000    0.00000       Uiso       1.00
      C177          C  0.3955210  0.6354040  0.5000000    0.00000       Uiso       1.00
      O178          O  0.4519600  0.6003230  0.5000000    0.00000       Uiso       1.00
      H179          H  0.5335670  0.5592700  0.5000000    0.00000       Uiso       1.00
      H180          H  0.5035020  0.5883240  0.5000000    0.00000       Uiso       1.00
      H181          H  0.4788460  0.6651600  0.5000000    0.00000       Uiso       1.00
      H182          H  0.4804280  0.7174670  0.5000000    0.00000       Uiso       1.00
      H183          H  0.3750950  0.6667450  0.5000000    0.00000       Uiso       1.00
      C184          C  0.0372700  0.4928870  0.5000000    0.00000       Uiso       1.00
      C185          C  0.0718630  0.5102480  0.5000000    0.00000       Uiso       1.00
      C186          C  0.1800390  0.5752890  0.5000000    0.00000       Uiso       1.00
      C187          C  0.2095280  0.5743300  0.5000000    0.00000       Uiso       1.00
      C188          C  0.2094390  0.5442850  0.5000000    0.00000       Uiso       1.00
      C189          C  0.2390500  0.5435170  0.5000000    0.00000       Uiso       1.00
      C190          C  0.2699780  0.5728330  0.5000000    0.00000       Uiso       1.00
      C191          C  0.2692130  0.6027150  0.5000000    0.00000       Uiso       1.00
      C192          C  0.2398830  0.6044790  0.5000000    0.00000       Uiso       1.00
      O193          O  0.1483620  0.5480400  0.5000000    0.00000       Uiso       1.00
      H194          H  0.0257030  0.4664330  0.5000000    0.00000       Uiso       1.00
      H195          H  0.0848230  0.4964980  0.5000000    0.00000       Uiso       1.00
      H196          H  0.1863130  0.5211540  0.5000000    0.00000       Uiso       1.00
      H197          H  0.2370390  0.5195720  0.5000000    0.00000       Uiso       1.00
      H198          H  0.2916500  0.6249050  0.5000000    0.00000       Uiso       1.00
