data_Tb-DANT-COF
_audit_creation_date              0000-00-00
_audit_creation_method            'LanYouShi'
_symmetry_space_group_name_H-M    'P1'
_cell_length_a                    29.7115002
_cell_length_b                    29.7115002
_cell_length_c                    3.4684000
_cell_angle_alpha                 90.0000000
_cell_angle_beta                  90.0000000
_cell_angle_gamma                 120.0000000
loop_
_atom_site_label
_atom_site_type_symbol
_atom_site_fract_x
_atom_site_fract_y
_atom_site_fract_z
_atom_site_U_iso_or_equiv
_atom_site_adp_type
_atom_site_occupancy
        N1          N  0.4067420  0.5947960  0.0000000    0.00000       Uiso       1.00
        N2          N  0.4052030  0.8119450  0.0000000    0.00000       Uiso       1.00
        N3          N  0.1880540  0.5932570  0.0000000    0.00000       Uiso       1.00
        N4          N  0.5932570  0.4052030  0.0000000    0.00000       Uiso       1.00
        N5          N  0.5947960  0.1880540  0.0000000    0.00000       Uiso       1.00
        N6          N  0.8119450  0.4067420  0.0000000    0.00000       Uiso       1.00
        C7          C  0.3215850  0.6147370  0.0000000    0.00000       Uiso       1.00
        C8          C  0.3852620  0.7068471  0.0000000    0.00000       Uiso       1.00
        C9          C  0.2931510  0.6784130  0.0000000    0.00000       Uiso       1.00
       C10          C  0.6784130  0.3852620  0.0000000    0.00000       Uiso       1.00
       C11          C  0.6147370  0.2931510  0.0000000    0.00000       Uiso       1.00
       C12          C  0.7068470  0.3215850  0.0000000    0.00000       Uiso       1.00
       C13          C  0.4155640  0.6441130  0.0000000    0.00000       Uiso       1.00
       C14          C  0.3558860  0.7714490  0.0000000    0.00000       Uiso       1.00
       C15          C  0.2285490  0.5844350  0.0000000    0.00000       Uiso       1.00
       C16          C  0.5844350  0.3558860  0.0000000    0.00000       Uiso       1.00
       C17          C  0.6441130  0.2285490  0.0000000    0.00000       Uiso       1.00
       C18          C  0.7714500  0.4155640  0.0000000    0.00000       Uiso       1.00
       N19          N  0.4350580  0.5721180  0.0000000    0.00000       Uiso       1.00
       N20          N  0.4278810  0.8629390  0.0000000    0.00000       Uiso       1.00
       N21          N  0.1370600  0.5649410  0.0000000    0.00000       Uiso       1.00
       N22          N  0.5649410  0.4278810  0.0000000    0.00000       Uiso       1.00
       N23          N  0.5721180  0.1370600  0.0000000    0.00000       Uiso       1.00
       N24          N  0.8629390  0.4350580  0.0000000    0.00000       Uiso       1.00
       C25          C  0.4884700  0.5975940  0.0000000    0.00000       Uiso       1.00
       C26          C  0.4024050  0.8908750  0.0000000    0.00000       Uiso       1.00
       C27          C  0.1091240  0.5115290  0.0000000    0.00000       Uiso       1.00
       C28          C  0.5115290  0.4024050  0.0000000    0.00000       Uiso       1.00
       C29          C  0.5975930  0.1091240  0.0000000    0.00000       Uiso       1.00
       C30          C  0.8908750  0.4884700  0.0000000    0.00000       Uiso       1.00
       C31          C  0.5156860  0.5697310  0.0000000    0.00000       Uiso       1.00
       C32          C  0.4302680  0.9459540  0.0000000    0.00000       Uiso       1.00
       C33          C  0.0540450  0.4843130  0.0000000    0.00000       Uiso       1.00
       C34          C  0.4843130  0.4302680  0.0000000    0.00000       Uiso       1.00
       C35          C  0.5697310  0.0540450  0.0000000    0.00000       Uiso       1.00
       C36          C  0.9459540  0.5156860  0.0000000    0.00000       Uiso       1.00
       C37          C  0.4868860  0.5145990  0.0000000    0.00000       Uiso       1.00
       C38          C  0.4854000  0.9722860  0.0000000    0.00000       Uiso       1.00
       C39          C  0.0277130  0.5131120  0.0000000    0.00000       Uiso       1.00
       C40          C  0.5131120  0.4854000  0.0000000    0.00000       Uiso       1.00
       C41          C  0.5145990  0.0277130  0.0000000    0.00000       Uiso       1.00
       C42          C  0.9722860  0.4868860  0.0000000    0.00000       Uiso       1.00
       C43          C  0.4317920  0.4886820  0.0000000    0.00000       Uiso       1.00
       C44          C  0.5113170  0.9431090  0.0000000    0.00000       Uiso       1.00
       C45          C  0.0568900  0.5682070  0.0000000    0.00000       Uiso       1.00
       C46          C  0.5682070  0.5113170  0.0000000    0.00000       Uiso       1.00
       C47          C  0.4886820  0.0568900  0.0000000    0.00000       Uiso       1.00
       C48          C  0.9431090  0.4317920  0.0000000    0.00000       Uiso       1.00
       C49          C  0.4069270  0.5187660  0.0000000    0.00000       Uiso       1.00
       C50          C  0.4812330  0.8881590  0.0000000    0.00000       Uiso       1.00
       C51          C  0.1118390  0.5930720  0.0000000    0.00000       Uiso       1.00
       C52          C  0.5930720  0.4812330  0.0000000    0.00000       Uiso       1.00
       C53          C  0.5187660  0.1118390  0.0000000    0.00000       Uiso       1.00
       C54          C  0.8881590  0.4069270  0.0000000    0.00000       Uiso       1.00
       C55          C  0.3742840  0.6547300  0.0000000    0.00000       Uiso       1.00
       C56          C  0.3452690  0.7195529  0.0000000    0.00000       Uiso       1.00
       C57          C  0.2804460  0.6257150  0.0000000    0.00000       Uiso       1.00
       C58          C  0.6257150  0.3452690  0.0000000    0.00000       Uiso       1.00
       C59          C  0.6547300  0.2804460  0.0000000    0.00000       Uiso       1.00
       C60          C  0.7195530  0.3742840  0.0000000    0.00000       Uiso       1.00
       H61          H  0.4527010  0.6745781  0.0000000    0.00000       Uiso       1.00
       H62          H  0.3254200  0.7781210  0.0000000    0.00000       Uiso       1.00
       H63          H  0.2218770  0.5472970  0.0000000    0.00000       Uiso       1.00
       H64          H  0.5472970  0.3254200  0.0000000    0.00000       Uiso       1.00
       H65          H  0.6745780  0.2218770  0.0000000    0.00000       Uiso       1.00
       H66          H  0.7781210  0.4527010  0.0000000    0.00000       Uiso       1.00
       O67          O  0.5146440  0.6462580  0.0000000    0.00000       Uiso       1.00
       O68          O  0.3537410  0.8683850  0.0000000    0.00000       Uiso       1.00
       O69          O  0.1316140  0.4853550  0.0000000    0.00000       Uiso       1.00
       O70          O  0.4853550  0.3537410  0.0000000    0.00000       Uiso       1.00
       O71          O  0.6462579  0.1316140  0.0000000    0.00000       Uiso       1.00
       O72          O  0.8683850  0.5146440  0.0000000    0.00000       Uiso       1.00
       O73          O  0.3580360  0.4954350  0.0000000    0.00000       Uiso       1.00
       O74          O  0.5045640  0.8626001  0.0000000    0.00000       Uiso       1.00
       O75          O  0.1373980  0.6419630  0.0000000    0.00000       Uiso       1.00
       O76          O  0.6419620  0.5045640  0.0000000    0.00000       Uiso       1.00
       O77          O  0.4954350  0.1373980  0.0000000    0.00000       Uiso       1.00
       O78          O  0.8626000  0.3580360  0.0000000    0.00000       Uiso       1.00
       C79          C  0.9756670  0.5705640  0.0000000    0.00000       Uiso       1.00
       C80          C  0.0301210  0.5963500  0.0000000    0.00000       Uiso       1.00
       H81          H  0.9580190  0.5925930  0.0000000    0.00000       Uiso       1.00
       H82          H  0.0499570  0.6361080  0.0000000    0.00000       Uiso       1.00
       C83          C  0.4294350  0.4051030  0.0000000    0.00000       Uiso       1.00
       C84          C  0.4036490  0.4337700  0.0000000    0.00000       Uiso       1.00
       H85          H  0.4074060  0.3654260  0.0000000    0.00000       Uiso       1.00
       H86          H  0.3638900  0.4138470  0.0000000    0.00000       Uiso       1.00
       C87          C  0.5948950  0.0243320  0.0000000    0.00000       Uiso       1.00
       C88          C  0.5662280  0.9698770  0.0000000    0.00000       Uiso       1.00
       H89          H  0.6345730  0.0419800  0.0000000    0.00000       Uiso       1.00
       H90          H  0.5861520  0.9500420  0.0000000    0.00000       Uiso       1.00
       C91          C  0.0243320  0.4294350  0.0000000    0.00000       Uiso       1.00
       C92          C  0.9698770  0.4036490  0.0000000    0.00000       Uiso       1.00
       H93          H  0.0419800  0.4074060  0.0000000    0.00000       Uiso       1.00
       H94          H  0.9500420  0.3638900  0.0000000    0.00000       Uiso       1.00
       C95          C  0.5705640  0.5948950  0.0000000    0.00000       Uiso       1.00
       C96          C  0.5963500  0.5662280  0.0000000    0.00000       Uiso       1.00
       H97          H  0.5925930  0.6345730  0.0000000    0.00000       Uiso       1.00
       H98          H  0.6361080  0.5861520  0.0000000    0.00000       Uiso       1.00
       C99          C  0.4051030  0.9756670  0.0000000    0.00000       Uiso       1.00
      C100          C  0.4337700  0.0301210  0.0000000    0.00000       Uiso       1.00
      H101          H  0.3654260  0.9580190  0.0000000    0.00000       Uiso       1.00
      H102          H  0.4138470  0.0499570  0.0000000    0.00000       Uiso       1.00
      H103          H  0.6871460  0.4232590  0.0000000    0.00000       Uiso       1.00
      H104          H  0.5767390  0.2638870  0.0000000    0.00000       Uiso       1.00
      H105          H  0.7361120  0.3128520  0.0000000    0.00000       Uiso       1.00
      H106          H  0.3128520  0.5767390  0.0000000    0.00000       Uiso       1.00
      H107          H  0.4232590  0.7361110  0.0000000    0.00000       Uiso       1.00
      H108          H  0.2638870  0.6871460  0.0000000    0.00000       Uiso       1.00
