data_TBPB_COF
_audit_creation_date              0000-00-00
_audit_creation_method            'LanYouShi'
_symmetry_space_group_name_H-M    'P1'
_cell_length_a                    22.7819996
_cell_length_b                    22.7819996
_cell_length_c                    3.4000001
_cell_angle_alpha                 90.0000000
_cell_angle_beta                  90.0000000
_cell_angle_gamma                 120.0000000
loop_
_atom_site_label
_atom_site_type_symbol
_atom_site_fract_x
_atom_site_fract_y
_atom_site_fract_z
_atom_site_U_iso_or_equiv
_atom_site_adp_type
_atom_site_occupancy
        C1          C  0.5709100  0.5354540  1.4705880    0.00000       Uiso       1.00
        C2          C  0.5354550  0.4645440  1.4705880    0.00000       Uiso       1.00
        C3          C  0.4645440  0.4290890  1.4705880    0.00000       Uiso       1.00
        C4          C  0.4290890  0.4645440  1.4705880    0.00000       Uiso       1.00
        C5          C  0.4645440  0.5354540  1.4705880    0.00000       Uiso       1.00
        C6          C  0.5354550  0.5709100  1.4705880    0.00000       Uiso       1.00
        H7          H  0.5628840  0.4371150  1.4705890    0.00000       Uiso       1.00
        H8          H  0.3742310  0.4371150  1.4705880    0.00000       Uiso       1.00
        H9          H  0.5628840  0.6257680  1.4705880    0.00000       Uiso       1.00
       C10          C  0.0957560  0.7978770  1.4705859    0.00000       Uiso       1.00
       C11          C  0.1312110  0.7624220  1.4705859    0.00000       Uiso       1.00
       C12          C  0.2021220  0.7978770  1.4705870    0.00000       Uiso       1.00
       C13          C  0.2375770  0.8687870  1.4705859    0.00000       Uiso       1.00
       C14          C  0.2021220  0.9042430  1.4705859    0.00000       Uiso       1.00
       C15          C  0.1312110  0.8687870  1.4705859    0.00000       Uiso       1.00
       H16          H  0.1037820  0.7075640  1.4705859    0.00000       Uiso       1.00
       H17          H  0.2924350  0.8962160  1.4705859    0.00000       Uiso       1.00
       H18          H  0.1037820  0.8962160  1.4705859    0.00000       Uiso       1.00
       C19          C  0.0156680  0.7578330  1.4705870    0.00000       Uiso       1.00
       C20          C  0.9795000  0.6865760  1.4705870    0.00000       Uiso       1.00
       C21          C  0.9085230  0.7574350  1.4705870    0.00000       Uiso       1.00
       H22          H  0.0063000  0.6583970  1.4705870    0.00000       Uiso       1.00
       C23          C  0.9795000  0.7929230  1.4705870    0.00000       Uiso       1.00
       C24          C  0.9085230  0.6510880  1.4705870    0.00000       Uiso       1.00
       H25          H  0.0062990  0.8479000  1.4705870    0.00000       Uiso       1.00
       C26          C  0.8723560  0.6861780  1.4705870    0.00000       Uiso       1.00
       C27          C  0.7943090  0.6471540  1.4705870    0.00000       Uiso       1.00
       C28          C  0.7581420  0.5758970  1.4705870    0.00000       Uiso       1.00
       C29          C  0.6871650  0.6467560  1.4705880    0.00000       Uiso       1.00
       H30          H  0.7849400  0.5477180  1.4705870    0.00000       Uiso       1.00
       C31          C  0.7581420  0.6822440  1.4705870    0.00000       Uiso       1.00
       C32          C  0.6871650  0.5404090  1.4705880    0.00000       Uiso       1.00
       H33          H  0.7849400  0.7372210  1.4705870    0.00000       Uiso       1.00
       C34          C  0.6509980  0.5754990  1.4705880    0.00000       Uiso       1.00
       H35          H  0.6603660  0.4854310  1.4705880    0.00000       Uiso       1.00
       H36          H  0.8817240  0.5961110  1.4705870    0.00000       Uiso       1.00
       H37          H  0.6603660  0.6749340  1.4705880    0.00000       Uiso       1.00
       H38          H  0.8817240  0.7856130  1.4705870    0.00000       Uiso       1.00
       C39          C  0.2421660  0.7578330  1.4705870    0.00000       Uiso       1.00
       C40          C  0.2070760  0.6865760  1.4705870    0.00000       Uiso       1.00
       C41          C  0.3489110  0.7574350  1.4705870    0.00000       Uiso       1.00
       H42          H  0.1520990  0.6583970  1.4705870    0.00000       Uiso       1.00
       C43          C  0.3134230  0.7929230  1.4705870    0.00000       Uiso       1.00
       C44          C  0.2425640  0.6510880  1.4705870    0.00000       Uiso       1.00
       H45          H  0.3416010  0.8479000  1.4705870    0.00000       Uiso       1.00
       C46          C  0.3138210  0.6861780  1.4705870    0.00000       Uiso       1.00
       C47          C  0.3528450  0.6471540  1.4705870    0.00000       Uiso       1.00
       C48          C  0.3177550  0.5758970  1.4705880    0.00000       Uiso       1.00
       C49          C  0.4595900  0.6467560  1.4705880    0.00000       Uiso       1.00
       H50          H  0.2627780  0.5477180  1.4705880    0.00000       Uiso       1.00
       C51          C  0.4241020  0.6822440  1.4705870    0.00000       Uiso       1.00
       C52          C  0.3532430  0.5404090  1.4705880    0.00000       Uiso       1.00
       H53          H  0.4522800  0.7372210  1.4705870    0.00000       Uiso       1.00
       C54          C  0.4245000  0.5754990  1.4705880    0.00000       Uiso       1.00
       H55          H  0.3250650  0.4854310  1.4705880    0.00000       Uiso       1.00
       H56          H  0.2143860  0.5961110  1.4705870    0.00000       Uiso       1.00
       H57          H  0.5145670  0.6749340  1.4705880    0.00000       Uiso       1.00
       H58          H  0.4038880  0.7856130  1.4705870    0.00000       Uiso       1.00
       C59          C  0.2421660  0.9843310  1.4705840    0.00000       Uiso       1.00
       C60          C  0.3134230  0.0204990  1.4705850    0.00000       Uiso       1.00
       C61          C  0.2425640  0.0914760  1.4705850    0.00000       Uiso       1.00
       H62          H  0.3416010  0.9936990  1.4705840    0.00000       Uiso       1.00
       C63          C  0.2070760  0.0204990  1.4705850    0.00000       Uiso       1.00
       C64          C  0.3489110  0.0914760  1.4705850    0.00000       Uiso       1.00
       H65          H  0.1520990  0.9936990  1.4705840    0.00000       Uiso       1.00
       C66          C  0.3138210  0.1276430  1.4705859    0.00000       Uiso       1.00
       C67          C  0.3528450  0.2056900  1.4705859    0.00000       Uiso       1.00
       C68          C  0.4241020  0.2418570  1.4705870    0.00000       Uiso       1.00
       C69          C  0.3532430  0.3128340  1.4705870    0.00000       Uiso       1.00
       H70          H  0.4522800  0.2150590  1.4705859    0.00000       Uiso       1.00
       C71          C  0.3177550  0.2418570  1.4705870    0.00000       Uiso       1.00
       C72          C  0.4595900  0.3128340  1.4705870    0.00000       Uiso       1.00
       H73          H  0.2627780  0.2150590  1.4705859    0.00000       Uiso       1.00
       C74          C  0.4245000  0.3490010  1.4705870    0.00000       Uiso       1.00
       H75          H  0.5145670  0.3396320  1.4705870    0.00000       Uiso       1.00
       H76          H  0.4038880  0.1182740  1.4705850    0.00000       Uiso       1.00
       H77          H  0.3250650  0.3396320  1.4705870    0.00000       Uiso       1.00
       H78          H  0.2143850  0.1182740  1.4705859    0.00000       Uiso       1.00
