data_T-COF_1
_audit_creation_date              0000-00-00
_audit_creation_method            'LanYouShi'
_symmetry_space_group_name_H-M    'P1'
_cell_length_a                    14.5584002
_cell_length_b                    14.5584002
_cell_length_c                    3.5000000
_cell_angle_alpha                 90.0000000
_cell_angle_beta                  90.0000000
_cell_angle_gamma                 120.0000000
loop_
_atom_site_label
_atom_site_type_symbol
_atom_site_fract_x
_atom_site_fract_y
_atom_site_fract_z
_atom_site_U_iso_or_equiv
_atom_site_adp_type
_atom_site_occupancy
        O1          O  0.7096820  0.2647290  0.5000010    0.00000       Uiso       1.00
        O2          O  0.7352710  0.4449530  0.5000010    0.00000       Uiso       1.00
        O3          O  0.5550460  0.2903180  0.5000000    0.00000       Uiso       1.00
        O4          O  0.2647290  0.7096820  0.5000000    0.00000       Uiso       1.00
        O5          O  0.4449540  0.7352710  0.5000010    0.00000       Uiso       1.00
        O6          O  0.2903180  0.5550460  0.4999990    0.00000       Uiso       1.00
        B7          B  0.7817880  0.3777490  0.5000010    0.00000       Uiso       1.00
        B8          B  0.6222510  0.4040390  0.5000000    0.00000       Uiso       1.00
        B9          B  0.5959610  0.2182120  0.5000000    0.00000       Uiso       1.00
       B10          B  0.3777490  0.7817879  0.5000010    0.00000       Uiso       1.00
       B11          B  0.4040390  0.6222510  0.5000000    0.00000       Uiso       1.00
       B12          B  0.2182120  0.5959610  0.5000000    0.00000       Uiso       1.00
       C13          C  0.8995920  0.4203250  0.5000000    0.00000       Uiso       1.00
       C14          C  0.5796750  0.4792670  0.5000000    0.00000       Uiso       1.00
       C15          C  0.4792670  0.5796750  0.5000000    0.00000       Uiso       1.00
       C16          C  0.5207330  0.1004080  0.5000000    0.00000       Uiso       1.00
       C17          C  0.4203250  0.8995920  0.5000010    0.00000       Uiso       1.00
       C18          C  0.1004080  0.5207330  0.5000000    0.00000       Uiso       1.00
       S19          S -0.0000000  0.5540060  0.5000010    0.00000       Uiso       1.00
       S20          S  0.4459940  0.4459940  0.5000000    0.00000       Uiso       1.00
       S21          S  0.5540060  0.0000000  0.5000020    0.00000       Uiso       1.00
       C22          C  0.9447450  0.3553000  0.4999990    0.00000       Uiso       1.00
       C23          C  0.6447000  0.5894450  0.4999990    0.00000       Uiso       1.00
       C24          C  0.4105550  0.0552550  0.4999970    0.00000       Uiso       1.00
       C25          C  0.3553000  0.9447449  0.5000000    0.00000       Uiso       1.00
       C26          C  0.5894450  0.6447000  0.5000010    0.00000       Uiso       1.00
       C27          C  0.0552550  0.4105550  0.5000010    0.00000       Uiso       1.00
       H28          H  0.9006340  0.2741060  0.4999970    0.00000       Uiso       1.00
       H29          H  0.7258940  0.6265280  0.4999970    0.00000       Uiso       1.00
       H30          H  0.3734720  0.0993660  0.4999940    0.00000       Uiso       1.00
       H31          H  0.2741060  0.9006340  0.5000010    0.00000       Uiso       1.00
       H32          H  0.6265280  0.7258940  0.5000020    0.00000       Uiso       1.00
       H33          H  0.0993660  0.3734720  0.5000020    0.00000       Uiso       1.00
