data_BDT-OEt_COF
_audit_creation_date              0000-00-00
_audit_creation_method            'LanYouShi'
_symmetry_space_group_name_H-M    'P1'
_cell_length_a                    36.9500008
_cell_length_b                    36.9500008
_cell_length_c                    3.5400000
_cell_angle_alpha                 90.0000000
_cell_angle_beta                  90.0000000
_cell_angle_gamma                 120.0000000
loop_
_atom_site_label
_atom_site_type_symbol
_atom_site_fract_x
_atom_site_fract_y
_atom_site_fract_z
_atom_site_U_iso_or_equiv
_atom_site_adp_type
_atom_site_occupancy
        C1          C  0.7042430  0.3734700  0.5000000    0.00000       Uiso       1.00
        C2          C  0.7069970  0.3363780  0.5000000    0.00000       Uiso       1.00
        C3          C  0.7465260  0.3391680  0.5000000    0.00000       Uiso       1.00
        C4          C  0.7812060  0.3779910  0.5000000    0.00000       Uiso       1.00
        C5          C  0.7785710  0.4143970  0.5000000    0.00000       Uiso       1.00
        C6          C  0.7410060  0.4130730  0.5000000    0.00000       Uiso       1.00
        O7          O  0.8182810  0.4488950  0.5000000    0.00000       Uiso       1.00
        B8          B  0.8447050  0.4319780  0.5000000    0.00000       Uiso       1.00
        O9          O  0.8224340  0.3881620  0.5000000    0.00000       Uiso       1.00
       C10          C  0.8917910  0.4559170  0.5000000    0.00000       Uiso       1.00
       S11          S  0.9213850  0.5103680  0.5000000    0.00000       Uiso       1.00
       C12          C  0.9675450  0.5084250  0.5000000    0.00000       Uiso       1.00
       C13          C  0.9593260  0.4661600  0.5000000    0.00000       Uiso       1.00
       C14          C  0.9159030  0.4372990  0.5000000    0.00000       Uiso       1.00
       C15          C  0.0077200  0.5422010  0.5000000    0.00000       Uiso       1.00
       C16          C  0.6265300  0.3307740  0.5000000    0.00000       Uiso       1.00
       C17          C  0.6636220  0.3706200  0.5000000    0.00000       Uiso       1.00
       C18          C  0.6608320  0.4073580  0.5000000    0.00000       Uiso       1.00
       C19          C  0.6220090  0.4032150  0.5000000    0.00000       Uiso       1.00
       C20          C  0.5856030  0.3641740  0.5000000    0.00000       Uiso       1.00
       C21          C  0.5869270  0.3279320  0.5000000    0.00000       Uiso       1.00
       O22          O  0.5511050  0.3693860  0.5000000    0.00000       Uiso       1.00
       B23          B  0.5680220  0.4127270  0.5000000    0.00000       Uiso       1.00
       O24          O  0.6118380  0.4342720  0.5000000    0.00000       Uiso       1.00
       C25          C  0.5440830  0.4358750  0.5000000    0.00000       Uiso       1.00
       S26          S  0.4896320  0.4110170  0.5000000    0.00000       Uiso       1.00
       C27          C  0.4915750  0.4591200  0.5000000    0.00000       Uiso       1.00
       C28          C  0.5338400  0.4931660  0.5000000    0.00000       Uiso       1.00
       C29          C  0.5627010  0.4786040  0.5000000    0.00000       Uiso       1.00
       C30          C  0.4577990  0.4655190  0.5000000    0.00000       Uiso       1.00
       C31          C  0.6692260  0.2957570  0.5000000    0.00000       Uiso       1.00
       C32          C  0.6293800  0.2930030  0.5000000    0.00000       Uiso       1.00
       C33          C  0.5926420  0.2534740  0.5000000    0.00000       Uiso       1.00
       C34          C  0.5967850  0.2187940  0.5000000    0.00000       Uiso       1.00
       C35          C  0.6358260  0.2214290  0.5000000    0.00000       Uiso       1.00
       C36          C  0.6720680  0.2589940  0.5000000    0.00000       Uiso       1.00
       O37          O  0.6306140  0.1817190  0.5000000    0.00000       Uiso       1.00
       B38          B  0.5872730  0.1552950  0.5000000    0.00000       Uiso       1.00
       O39          O  0.5657280  0.1775660  0.5000000    0.00000       Uiso       1.00
       C40          C  0.5641250  0.1082080  0.5000000    0.00000       Uiso       1.00
       S41          S  0.5889830  0.0786150  0.5000000    0.00000       Uiso       1.00
       C42          C  0.5408800  0.0324550  0.5000000    0.00000       Uiso       1.00
       C43          C  0.5068340  0.0406740  0.5000000    0.00000       Uiso       1.00
       C44          C  0.5213960  0.0840970  0.5000000    0.00000       Uiso       1.00
       C45          C  0.5344810  0.9922800  0.5000000    0.00000       Uiso       1.00
       C46          C  0.2957570  0.6265300  0.5000000    0.00000       Uiso       1.00
       C47          C  0.2930030  0.6636220  0.5000000    0.00000       Uiso       1.00
       C48          C  0.2534740  0.6608320  0.5000000    0.00000       Uiso       1.00
       C49          C  0.2187940  0.6220090  0.5000000    0.00000       Uiso       1.00
       C50          C  0.2214290  0.5856030  0.5000000    0.00000       Uiso       1.00
       C51          C  0.2589940  0.5869270  0.5000000    0.00000       Uiso       1.00
       O52          O  0.1817190  0.5511050  0.5000000    0.00000       Uiso       1.00
       B53          B  0.1552950  0.5680220  0.5000000    0.00000       Uiso       1.00
       O54          O  0.1775660  0.6118380  0.5000000    0.00000       Uiso       1.00
       C55          C  0.1082080  0.5440830  0.5000000    0.00000       Uiso       1.00
       S56          S  0.0786150  0.4896320  0.5000000    0.00000       Uiso       1.00
       C57          C  0.0324550  0.4915750  0.5000000    0.00000       Uiso       1.00
       C58          C  0.0406740  0.5338400  0.5000000    0.00000       Uiso       1.00
       C59          C  0.0840970  0.5627010  0.5000000    0.00000       Uiso       1.00
       C60          C  0.9922800  0.4577990  0.5000000    0.00000       Uiso       1.00
       C61          C  0.3734700  0.6692260  0.5000000    0.00000       Uiso       1.00
       C62          C  0.3363780  0.6293800  0.5000000    0.00000       Uiso       1.00
       C63          C  0.3391680  0.5926420  0.5000000    0.00000       Uiso       1.00
       C64          C  0.3779910  0.5967850  0.5000000    0.00000       Uiso       1.00
       C65          C  0.4143970  0.6358260  0.5000000    0.00000       Uiso       1.00
       C66          C  0.4130730  0.6720680  0.5000000    0.00000       Uiso       1.00
       O67          O  0.4488950  0.6306140  0.5000000    0.00000       Uiso       1.00
       B68          B  0.4319780  0.5872730  0.5000000    0.00000       Uiso       1.00
       O69          O  0.3881620  0.5657280  0.5000000    0.00000       Uiso       1.00
       C70          C  0.4559170  0.5641250  0.5000000    0.00000       Uiso       1.00
       S71          S  0.5103680  0.5889830  0.5000000    0.00000       Uiso       1.00
       C72          C  0.5084250  0.5408800  0.5000000    0.00000       Uiso       1.00
       C73          C  0.4661600  0.5068340  0.5000000    0.00000       Uiso       1.00
       C74          C  0.4372990  0.5213960  0.5000000    0.00000       Uiso       1.00
       C75          C  0.5422010  0.5344800  0.5000000    0.00000       Uiso       1.00
       C76          C  0.3307740  0.7042430  0.5000000    0.00000       Uiso       1.00
       C77          C  0.3706200  0.7069970  0.5000000    0.00000       Uiso       1.00
       C78          C  0.4073580  0.7465260  0.5000000    0.00000       Uiso       1.00
       C79          C  0.4032150  0.7812060  0.5000000    0.00000       Uiso       1.00
       C80          C  0.3641740  0.7785710  0.5000000    0.00000       Uiso       1.00
       C81          C  0.3279320  0.7410060  0.5000000    0.00000       Uiso       1.00
       O82          O  0.3693860  0.8182810  0.5000000    0.00000       Uiso       1.00
       B83          B  0.4127270  0.8447050  0.5000000    0.00000       Uiso       1.00
       O84          O  0.4342720  0.8224340  0.5000000    0.00000       Uiso       1.00
       C85          C  0.4358750  0.8917920  0.5000000    0.00000       Uiso       1.00
       S86          S  0.4110170  0.9213850  0.5000000    0.00000       Uiso       1.00
       C87          C  0.4591200  0.9675450  0.5000000    0.00000       Uiso       1.00
       C88          C  0.4931660  0.9593260  0.5000000    0.00000       Uiso       1.00
       C89          C  0.4786040  0.9159030  0.5000000    0.00000       Uiso       1.00
       C90          C  0.4655190  0.0077200  0.5000000    0.00000       Uiso       1.00
       H91          H  0.7503400  0.3118770  0.5000000    0.00000       Uiso       1.00
       H92          H  0.7403490  0.4421010  0.5000000    0.00000       Uiso       1.00
       H93          H  0.9024770  0.4034930  0.5000000    0.00000       Uiso       1.00
       H94          H  0.6881230  0.4384630  0.5000000    0.00000       Uiso       1.00
       H95          H  0.5578990  0.2982470  0.5000000    0.00000       Uiso       1.00
       H96          H  0.5965060  0.4989840  0.5000000    0.00000       Uiso       1.00
       H97          H  0.5615370  0.2496600  0.5000000    0.00000       Uiso       1.00
       H98          H  0.7017530  0.2596510  0.5000000    0.00000       Uiso       1.00
       H99          H  0.5010160  0.0975230  0.5000000    0.00000       Uiso       1.00
      H100          H  0.2496600  0.6881230  0.5000000    0.00000       Uiso       1.00
      H101          H  0.2596510  0.5578990  0.5000000    0.00000       Uiso       1.00
      H102          H  0.0975230  0.5965060  0.5000000    0.00000       Uiso       1.00
      H103          H  0.3118770  0.5615370  0.5000000    0.00000       Uiso       1.00
      H104          H  0.4421010  0.7017530  0.5000000    0.00000       Uiso       1.00
      H105          H  0.4034930  0.5010160  0.5000000    0.00000       Uiso       1.00
      H106          H  0.4384630  0.7503400  0.5000000    0.00000       Uiso       1.00
      H107          H  0.2982470  0.7403490  0.5000000    0.00000       Uiso       1.00
      H108          H  0.4989840  0.9024770  0.5000000    0.00000       Uiso       1.00
      O109          O  0.5866290  0.5704650  0.5000000    0.00000       Uiso       1.00
      C110          C  0.5863610  0.6112160  0.5000000    0.00000       Uiso       1.00
      C111          C  0.6313990  0.6484750  0.4967200    0.00000       Uiso       1.00
      H112          H  0.5696170  0.6129170  0.7638830    0.00000       Uiso       1.00
      H113          H  0.5691470  0.6127200  0.2383760    0.00000       Uiso       1.00
      H114          H  0.6481960  0.6470840  0.2316840    0.00000       Uiso       1.00
      H115          H  0.6487690  0.6471200  0.7576350    0.00000       Uiso       1.00
      H116          H  0.6305700  0.6789010  0.4983760    0.00000       Uiso       1.00
      O117          O  0.4133710  0.4295350  0.5000000    0.00000       Uiso       1.00
      C118          C  0.4136390  0.3887840  0.5000000    0.00000       Uiso       1.00
      C119          C  0.3686010  0.3515250  0.4967200    0.00000       Uiso       1.00
      H120          H  0.4303830  0.3870830  0.7638830    0.00000       Uiso       1.00
      H121          H  0.4308530  0.3872800  0.2383760    0.00000       Uiso       1.00
      H122          H  0.3518040  0.3529160  0.2316840    0.00000       Uiso       1.00
      H123          H  0.3512310  0.3528800  0.7576350    0.00000       Uiso       1.00
      H124          H  0.3694300  0.3210990  0.4983760    0.00000       Uiso       1.00
      O125          O  0.0161640  0.5866290  0.5000000    0.00000       Uiso       1.00
      C126          C -0.0248550  0.5863610  0.5000000    0.00000       Uiso       1.00
      C127          C -0.0170760  0.6313990  0.4967200    0.00000       Uiso       1.00
      H128          H -0.0433000  0.5696170  0.7638830    0.00000       Uiso       1.00
      H129          H -0.0435720  0.5691470  0.2383760    0.00000       Uiso       1.00
      H130          H  0.0011130  0.6481960  0.2316840    0.00000       Uiso       1.00
      H131          H  0.0016490  0.6487690  0.7576350    0.00000       Uiso       1.00
      H132          H -0.0483310  0.6305700  0.4983760    0.00000       Uiso       1.00
      O133          O  0.5704650  0.9838360  0.5000000    0.00000       Uiso       1.00
      C134          C  0.6112160  1.0248550  0.5000000    0.00000       Uiso       1.00
      C135          C  0.6484750  1.0170760  0.4967200    0.00000       Uiso       1.00
      H136          H  0.6129170  1.0433000  0.7638830    0.00000       Uiso       1.00
      H137          H  0.6127200  1.0435719  0.2383760    0.00000       Uiso       1.00
      H138          H  0.6470840  0.9988870  0.2316840    0.00000       Uiso       1.00
      H139          H  0.6471200  0.9983510  0.7576350    0.00000       Uiso       1.00
      H140          H  0.6789010  1.0483310  0.4983760    0.00000       Uiso       1.00
      O141          O  0.4295350  0.0161640  0.5000000    0.00000       Uiso       1.00
      C142          C  0.3887840 -0.0248550  0.5000000    0.00000       Uiso       1.00
      C143          C  0.3515250 -0.0170760  0.4967200    0.00000       Uiso       1.00
      H144          H  0.3870830 -0.0433000  0.7638830    0.00000       Uiso       1.00
      H145          H  0.3872800 -0.0435720  0.2383760    0.00000       Uiso       1.00
      H146          H  0.3529160  0.0011130  0.2316840    0.00000       Uiso       1.00
      H147          H  0.3528800  0.0016490  0.7576350    0.00000       Uiso       1.00
      H148          H  0.3210990 -0.0483310  0.4983760    0.00000       Uiso       1.00
      O149          O  0.9838360  0.4133710  0.5000000    0.00000       Uiso       1.00
      C150          C  1.0248550  0.4136390  0.5000000    0.00000       Uiso       1.00
      C151          C  1.0170760  0.3686010  0.4967200    0.00000       Uiso       1.00
      H152          H  1.0433000  0.4303830  0.7638830    0.00000       Uiso       1.00
      H153          H  1.0435719  0.4308530  0.2383760    0.00000       Uiso       1.00
      H154          H  0.9988870  0.3518040  0.2316840    0.00000       Uiso       1.00
      H155          H  0.9983510  0.3512310  0.7576350    0.00000       Uiso       1.00
      H156          H  1.0483310  0.3694300  0.4983760    0.00000       Uiso       1.00
