data_T-COF_3
_audit_creation_date              0000-00-00
_audit_creation_method            'LanYouShi'
_symmetry_space_group_name_H-M    'P1'
_cell_length_a                    18.8125992
_cell_length_b                    18.8125992
_cell_length_c                    3.4000001
_cell_angle_alpha                 90.0000000
_cell_angle_beta                  90.0000000
_cell_angle_gamma                 120.0000000
loop_
_atom_site_label
_atom_site_type_symbol
_atom_site_fract_x
_atom_site_fract_y
_atom_site_fract_z
_atom_site_U_iso_or_equiv
_atom_site_adp_type
_atom_site_occupancy
        O1          O  0.5473320  0.4563500  1.4705880    0.00000       Uiso       1.00
        O2          O  0.4090180  0.4526670  1.4705880    0.00000       Uiso       1.00
        O3          O  0.5436490  0.5909820  1.4705880    0.00000       Uiso       1.00
        B4          B  0.5886020  0.5460940  1.4705880    0.00000       Uiso       1.00
        B5          B  0.4574920  0.4113980  1.4705880    0.00000       Uiso       1.00
        B6          B  0.4539060  0.5425070  1.4705880    0.00000       Uiso       1.00
        O7          O  0.1193370  0.8769850  1.4702671    0.00000       Uiso       1.00
        O8          O  0.2576490  0.8806630  1.4705700    0.00000       Uiso       1.00
        O9          O  0.1230140  0.7423510  1.4704230    0.00000       Uiso       1.00
       B10          B  0.0780650  0.7872410  1.4702739    0.00000       Uiso       1.00
       B11          B  0.2091770  0.9219350  1.4704169    0.00000       Uiso       1.00
       B12          B  0.2127580  0.7908230  1.4705690    0.00000       Uiso       1.00
       C13          C  0.9872739  0.7401260  1.4702690    0.00000       Uiso       1.00
       C14          C  0.6793920  0.5932050  1.4704580    0.00000       Uiso       1.00
       S15          S  0.9247609  0.6288990  1.4704109    0.00000       Uiso       1.00
       S16          S  0.7419050  0.7044320  1.4702570    0.00000       Uiso       1.00
       C17          C  0.8271500  0.6237970  1.4702480    0.00000       Uiso       1.00
       C18          C  0.8395130  0.7095290  1.4701660    0.00000       Uiso       1.00
       C19          C  0.9305050  0.7785900  1.4702429    0.00000       Uiso       1.00
       C20          C  0.7361590  0.5547350  1.4704140    0.00000       Uiso       1.00
       H21          H  0.9527340  0.8471620  1.4703000    0.00000       Uiso       1.00
       H22          H  0.7139310  0.4861630  1.4705091    0.00000       Uiso       1.00
       C23          C  0.2598730  0.7471470  1.4702690    0.00000       Uiso       1.00
       C24          C  0.4067950  0.5861870  1.4704580    0.00000       Uiso       1.00
       S25          S  0.3711010  0.7958620  1.4704120    0.00000       Uiso       1.00
       S26          S  0.2955670  0.5374720  1.4702570    0.00000       Uiso       1.00
       C27          C  0.3762030  0.7033530  1.4702480    0.00000       Uiso       1.00
       C28          C  0.2904710  0.6299840  1.4701660    0.00000       Uiso       1.00
       C29          C  0.2214100  0.6519150  1.4702429    0.00000       Uiso       1.00
       C30          C  0.4452640  0.6814240  1.4704140    0.00000       Uiso       1.00
       H31          H  0.1528370  0.6055720  1.4703000    0.00000       Uiso       1.00
       H32          H  0.5138370  0.7277680  1.4705091    0.00000       Uiso       1.00
       C33          C  0.2528520  0.0127260  1.4702710    0.00000       Uiso       1.00
       C34          C  0.4138120  0.3206070  1.4704590    0.00000       Uiso       1.00
       S35          S  0.2041380  0.0752390  1.4704130    0.00000       Uiso       1.00
       S36          S  0.4625270  0.2580950  1.4702580    0.00000       Uiso       1.00
       C37          C  0.2966460  0.1728490  1.4702491    0.00000       Uiso       1.00
       C38          C  0.3700150  0.1604860  1.4701670    0.00000       Uiso       1.00
       C39          C  0.3480840  0.0694940  1.4702441    0.00000       Uiso       1.00
       C40          C  0.3185760  0.2638400  1.4704150    0.00000       Uiso       1.00
       H41          H  0.3944280  0.0472650  1.4703020    0.00000       Uiso       1.00
       H42          H  0.2722310  0.2860690  1.4705099    0.00000       Uiso       1.00
