data_TDFP-1
_audit_creation_date              0000-00-00
_audit_creation_method            'LanYouShi'
_symmetry_space_group_name_H-M    'P1'
_cell_length_a                    32.2005005
_cell_length_b                    32.2005005
_cell_length_c                    3.8282001
_cell_angle_alpha                 90.0000000
_cell_angle_beta                  90.0000000
_cell_angle_gamma                 120.0000000
loop_
_atom_site_label
_atom_site_type_symbol
_atom_site_fract_x
_atom_site_fract_y
_atom_site_fract_z
_atom_site_U_iso_or_equiv
_atom_site_adp_type
_atom_site_occupancy
        N1          N  0.5788940  0.6691680  0.5000060    0.00000       Uiso       1.00
        N2          N  0.6562180  0.5730610  0.5000060    0.00000       Uiso       1.00
        N3          N  0.3308320  0.9097250  0.5000060    0.00000       Uiso       1.00
        N4          N  0.4269390  0.0831570  0.5000060    0.00000       Uiso       1.00
        N5          N  0.0902750  0.4211060  0.5000060    0.00000       Uiso       1.00
        N6          N  0.9168430  0.3437820  0.5000060    0.00000       Uiso       1.00
        C7          C  0.5701220  0.7060570  0.5000060    0.00000       Uiso       1.00
        C8          C  0.6209540  0.5265620  0.5000060    0.00000       Uiso       1.00
        C9          C  0.2939430  0.8640640  0.5000060    0.00000       Uiso       1.00
       C10          C  0.4734380  0.0943920  0.5000060    0.00000       Uiso       1.00
       C11          C  0.1359350  0.4298780  0.5000060    0.00000       Uiso       1.00
       C12          C  0.9056080  0.3790460  0.5000060    0.00000       Uiso       1.00
       C13          C  0.6665290  0.7078820  0.5000060    0.00000       Uiso       1.00
       C14          C  0.6561790  0.6152740  0.5000060    0.00000       Uiso       1.00
       C15          C  0.2921170  0.9586470  0.5000060    0.00000       Uiso       1.00
       C16          C  0.3847260  0.0409040  0.5000060    0.00000       Uiso       1.00
       C17          C  0.0413530  0.3334700  0.5000060    0.00000       Uiso       1.00
       C18          C  0.9590950  0.3438210  0.5000060    0.00000       Uiso       1.00
       C19          C  0.7078680  0.7032370  0.5000060    0.00000       Uiso       1.00
       C20          C  0.6152560  0.6210231  0.5000060    0.00000       Uiso       1.00
       C21          C  0.2967630  0.0046310  0.5000060    0.00000       Uiso       1.00
       C22          C  0.3789770  0.9942330  0.5000060    0.00000       Uiso       1.00
       C23          C  0.9953690  0.2921320  0.5000060    0.00000       Uiso       1.00
       C24          C  0.0057670  0.3847440  0.5000060    0.00000       Uiso       1.00
       C25          C  0.7020750  0.6567490  0.5000060    0.00000       Uiso       1.00
       C26          C  0.6200110  0.6671680  0.5000060    0.00000       Uiso       1.00
       C27          C  0.3432510  0.0453260  0.5000060    0.00000       Uiso       1.00
       C28          C  0.3328320  0.9528430  0.5000060    0.00000       Uiso       1.00
       C29          C  0.9546740  0.2979250  0.5000060    0.00000       Uiso       1.00
       C30          C  0.0471570  0.3799880  0.5000060    0.00000       Uiso       1.00
       H31          H  0.5981850  0.7404541  0.5000060    0.00000       Uiso       1.00
       H32          H  0.5859840  0.5182070  0.5000060    0.00000       Uiso       1.00
       H33          H  0.2595460  0.8577300  0.5000060    0.00000       Uiso       1.00
       H34          H  0.4817930  0.0677770  0.5000060    0.00000       Uiso       1.00
       H35          H  0.1422690  0.4018150  0.5000060    0.00000       Uiso       1.00
       H36          H  0.9322220  0.4140150  0.5000060    0.00000       Uiso       1.00
       O37          O  0.5738220  0.5853420  0.5000060    0.00000       Uiso       1.00
       O38          O  0.4146580  0.9884800  0.5000060    0.00000       Uiso       1.00
       O39          O  0.0115200  0.4261780  0.5000060    0.00000       Uiso       1.00
       C40          C  0.3255850  0.7049960  0.5000060    0.00000       Uiso       1.00
       C41          C  0.6289720  0.2869160  0.5000060    0.00000       Uiso       1.00
       C42          C  0.2950040  0.6205891  0.5000060    0.00000       Uiso       1.00
       C43          C  0.7130840  0.3420560  0.5000060    0.00000       Uiso       1.00
       C44          C  0.3794110  0.6744150  0.5000060    0.00000       Uiso       1.00
       C45          C  0.6579440  0.3710280  0.5000060    0.00000       Uiso       1.00
       N46          N  0.2886460  0.6591640  0.5000060    0.00000       Uiso       1.00
       N47          N  0.6751320  0.2967720  0.5000060    0.00000       Uiso       1.00
       N48          N  0.3408360  0.6294820  0.5000060    0.00000       Uiso       1.00
       N49          N  0.7032280  0.3783600  0.5000060    0.00000       Uiso       1.00
       N50          N  0.3705180  0.7113540  0.5000060    0.00000       Uiso       1.00
       N51          N  0.6216390  0.3248680  0.5000060    0.00000       Uiso       1.00
       C52          C  0.3177130  0.7445130  0.5000060    0.00000       Uiso       1.00
       C53          C  0.5901280  0.2391620  0.5000060    0.00000       Uiso       1.00
       C54          C  0.2554870  0.5732000  0.5000060    0.00000       Uiso       1.00
       C55          C  0.7608370  0.3509660  0.5000060    0.00000       Uiso       1.00
       C56          C  0.4268000  0.6822861  0.5000060    0.00000       Uiso       1.00
       C57          C  0.6490340  0.4098720  0.5000060    0.00000       Uiso       1.00
       C58          C  0.4356370  0.6433650  0.5000060    0.00000       Uiso       1.00
       C59          C  0.6871220  0.4580890  0.5000060    0.00000       Uiso       1.00
       C60          C  0.3566340  0.7922710  0.5000060    0.00000       Uiso       1.00
       C61          C  0.5419110  0.2290330  0.5000060    0.00000       Uiso       1.00
       C62          C  0.2077280  0.5643630  0.5000060    0.00000       Uiso       1.00
       C63          C  0.7709670  0.3128780  0.5000060    0.00000       Uiso       1.00
       C64          C  0.4826060  0.6509780  0.5000060    0.00000       Uiso       1.00
       C65          C  0.6782470  0.4966740  0.5000060    0.00000       Uiso       1.00
       C66          C  0.3490220  0.8316280  0.5000060    0.00000       Uiso       1.00
       C67          C  0.5033250  0.1815730  0.5000060    0.00000       Uiso       1.00
       C68          C  0.1683720  0.5173940  0.5000060    0.00000       Uiso       1.00
       C69          C  0.8184270  0.3217520  0.5000060    0.00000       Uiso       1.00
       C70          C  0.5228120  0.6978580  0.5000060    0.00000       Uiso       1.00
       C71          C  0.6308700  0.4886040  0.5000060    0.00000       Uiso       1.00
       C72          C  0.3021410  0.8249540  0.5000060    0.00000       Uiso       1.00
       C73          C  0.5113960  0.1422660  0.5000060    0.00000       Uiso       1.00
       C74          C  0.1750460  0.4771870  0.5000060    0.00000       Uiso       1.00
       C75          C  0.8577330  0.3691290  0.5000060    0.00000       Uiso       1.00
       C76          C  0.5142820  0.7368660  0.5000060    0.00000       Uiso       1.00
       C77          C  0.5927230  0.4406060  0.5000060    0.00000       Uiso       1.00
       C78          C  0.2631340  0.7774149  0.5000060    0.00000       Uiso       1.00
       C79          C  0.5593940  0.1521180  0.5000060    0.00000       Uiso       1.00
       C80          C  0.2225840  0.4857180  0.5000060    0.00000       Uiso       1.00
       C81          C  0.8478820  0.4072760  0.5000060    0.00000       Uiso       1.00
       C82          C  0.4672410  0.7292110  0.5000060    0.00000       Uiso       1.00
       C83          C  0.6016370  0.4020760  0.5000060    0.00000       Uiso       1.00
       C84          C  0.2707890  0.7380300  0.5000060    0.00000       Uiso       1.00
       C85          C  0.5979230  0.1995600  0.5000060    0.00000       Uiso       1.00
       C86          C  0.2619700  0.5327590  0.5000060    0.00000       Uiso       1.00
       C87          C  0.8004390  0.3983630  0.5000060    0.00000       Uiso       1.00
       H88          H  0.4078060  0.6087530  0.5000060    0.00000       Uiso       1.00
       H89          H  0.7220210  0.4657430  0.5000060    0.00000       Uiso       1.00
       H90          H  0.3912470  0.7990530  0.5000060    0.00000       Uiso       1.00
       H91          H  0.5342570  0.2562780  0.5000060    0.00000       Uiso       1.00
       H92          H  0.2009470  0.5921941  0.5000060    0.00000       Uiso       1.00
       H93          H  0.7437220  0.2779790  0.5000060    0.00000       Uiso       1.00
       H94          H  0.4872990  0.6217880  0.5000060    0.00000       Uiso       1.00
       H95          H  0.7067860  0.5309560  0.5000060    0.00000       Uiso       1.00
       H96          H  0.3782120  0.8655100  0.5000060    0.00000       Uiso       1.00
       H97          H  0.4690440  0.1758300  0.5000060    0.00000       Uiso       1.00
       H98          H  0.1344890  0.5127010  0.5000060    0.00000       Uiso       1.00
       H99          H  0.8241690  0.2932130  0.5000060    0.00000       Uiso       1.00
      H100          H  0.5423650  0.7713660  0.5000060    0.00000       Uiso       1.00
      H101          H  0.5578730  0.4331670  0.5000060    0.00000       Uiso       1.00
      H102          H  0.2286330  0.7709980  0.5000060    0.00000       Uiso       1.00
      H103          H  0.5668320  0.1247060  0.5000060    0.00000       Uiso       1.00
      H104          H  0.2290020  0.4576350  0.5000060    0.00000       Uiso       1.00
      H105          H  0.8752940  0.4421260  0.5000060    0.00000       Uiso       1.00
      H106          H  0.4629010  0.7585870  0.5000060    0.00000       Uiso       1.00
      H107          H  0.5728020  0.3680140  0.5000060    0.00000       Uiso       1.00
      H108          H  0.2414130  0.7043140  0.5000060    0.00000       Uiso       1.00
      H109          H  0.6319860  0.2047880  0.5000060    0.00000       Uiso       1.00
      H110          H  0.2956860  0.5370990  0.5000060    0.00000       Uiso       1.00
      H111          H  0.7952120  0.4271980  0.5000060    0.00000       Uiso       1.00
      H112          H  0.7602500  0.7688030  0.2761420    0.00000       Uiso       1.00
      H113          H  0.2311970  0.9914470  0.2761420    0.00000       Uiso       1.00
      H114          H  0.0085530  0.2397500  0.2761420    0.00000       Uiso       1.00
      H115          H  0.7602500  0.7688030  0.7238690    0.00000       Uiso       1.00
      H116          H  0.2311970  0.9914470  0.7238690    0.00000       Uiso       1.00
      H117          H  0.0085530  0.2397500  0.7238690    0.00000       Uiso       1.00
      H118          H  0.7319100  0.6530930  0.5000060    0.00000       Uiso       1.00
      H119          H  0.6706500  0.7414650  0.5000060    0.00000       Uiso       1.00
      C120          C  0.7560620  0.7467060  0.5000060    0.00000       Uiso       1.00
      H121          H  0.7849800  0.7383080  0.5000060    0.00000       Uiso       1.00
      H122          H  0.3469070  0.0788170  0.5000060    0.00000       Uiso       1.00
      H123          H  0.2585340  0.9291841  0.5000060    0.00000       Uiso       1.00
      C124          C  0.2532930  0.0093560  0.5000060    0.00000       Uiso       1.00
      H125          H  0.2616920  0.0466720  0.5000060    0.00000       Uiso       1.00
      H126          H  0.9211820  0.2680890  0.5000060    0.00000       Uiso       1.00
      H127          H  0.0708160  0.3293500  0.5000060    0.00000       Uiso       1.00
      C128          C  0.9906440  0.2439380  0.5000060    0.00000       Uiso       1.00
      H129          H  0.9533280  0.2150200  0.5000060    0.00000       Uiso       1.00
