data_TfBD
_audit_creation_date              0000-00-00
_audit_creation_method            'LanYouShi'
_symmetry_space_group_name_H-M    'P1'
_cell_length_a                    30.1485996
_cell_length_b                    30.1485996
_cell_length_c                    3.5373001
_cell_angle_alpha                 90.0000000
_cell_angle_beta                  90.0000000
_cell_angle_gamma                 120.0000000
loop_
_atom_site_label
_atom_site_type_symbol
_atom_site_fract_x
_atom_site_fract_y
_atom_site_fract_z
_atom_site_U_iso_or_equiv
_atom_site_adp_type
_atom_site_occupancy
        C1          C  0.7040590  0.3187140  0.4999930    0.00000       Uiso       1.00
        C2          C  0.7196340  0.3714340  0.4999930    0.00000       Uiso       1.00
        H3          H  0.7314811  0.3081300  0.4999930    0.00000       Uiso       1.00
        C4          C  0.3482000  0.7196340  0.4999930    0.00000       Uiso       1.00
        C5          C  0.3853460  0.7040590  0.4999930    0.00000       Uiso       1.00
        H6          H  0.4233520  0.7314810  0.4999930    0.00000       Uiso       1.00
        C7          C  0.6812860  0.3853460  0.4999930    0.00000       Uiso       1.00
        C8          C  0.6285660  0.3482000  0.4999930    0.00000       Uiso       1.00
        H9          H  0.6918700  0.4233510  0.4999930    0.00000       Uiso       1.00
       C10          C  0.2803660  0.6285660  0.4999930    0.00000       Uiso       1.00
       C11          C  0.2959400  0.6812860  0.4999930    0.00000       Uiso       1.00
       H12          H  0.2685190  0.6918700  0.4999930    0.00000       Uiso       1.00
       C13          C  0.6146540  0.2959400  0.4999930    0.00000       Uiso       1.00
       C14          C  0.6518000  0.2803660  0.4999930    0.00000       Uiso       1.00
       H15          H  0.5766480  0.2685190  0.4999930    0.00000       Uiso       1.00
       C16          C  0.3714340  0.6518000  0.4999930    0.00000       Uiso       1.00
       C17          C  0.3187140  0.6146540  0.4999930    0.00000       Uiso       1.00
       H18          H  0.3081300  0.5766480  0.4999930    0.00000       Uiso       1.00
       C19          C  0.7717690  0.4097270  0.4999930    0.00000       Uiso       1.00
       H20          H  0.7811350  0.4473360  0.4999930    0.00000       Uiso       1.00
       C21          C  0.5902730  0.3620420  0.4999930    0.00000       Uiso       1.00
       H22          H  0.5526630  0.3337980  0.4999930    0.00000       Uiso       1.00
       C23          C  0.6379570  0.2282310  0.4999930    0.00000       Uiso       1.00
       H24          H  0.6662010  0.2188650  0.4999930    0.00000       Uiso       1.00
       C25          C  0.2282310  0.5902730  0.4999930    0.00000       Uiso       1.00
       H26          H  0.2188650  0.5526630  0.4999930    0.00000       Uiso       1.00
       C27          C  0.4097270  0.6379570  0.4999930    0.00000       Uiso       1.00
       H28          H  0.4473360  0.6662010  0.4999930    0.00000       Uiso       1.00
       C29          C  0.3620420  0.7717690  0.4999930    0.00000       Uiso       1.00
       H30          H  0.3337980  0.7811350  0.4999930    0.00000       Uiso       1.00
       N31          N  0.8095080  0.3978610  0.4999930    0.00000       Uiso       1.00
       N32          N  0.6021390  0.4116470  0.4999930    0.00000       Uiso       1.00
       N33          N  0.5883530  0.1904920  0.4999930    0.00000       Uiso       1.00
       N34          N  0.1904920  0.6021390  0.4999930    0.00000       Uiso       1.00
       N35          N  0.3978610  0.5883530  0.4999930    0.00000       Uiso       1.00
       N36          N  0.4116470  0.8095081  0.4999930    0.00000       Uiso       1.00
       C37          C  0.1388310  0.5720320  0.4999930    0.00000       Uiso       1.00
       C38          C  0.4279680  0.5667990  0.4999930    0.00000       Uiso       1.00
       C39          C  0.4332010  0.8611690  0.4999930    0.00000       Uiso       1.00
       C40          C  0.8611690  0.4279680  0.4999930    0.00000       Uiso       1.00
       C41          C  0.5720320  0.4332010  0.4999930    0.00000       Uiso       1.00
       C42          C  0.5667990  0.1388310  0.4999930    0.00000       Uiso       1.00
       C43          C  0.1101020  0.5969980  0.4999930    0.00000       Uiso       1.00
       C44          C  0.5939650  0.1120860  0.4999930    0.00000       Uiso       1.00
       C45          C  0.4030020  0.5131040  0.4999930    0.00000       Uiso       1.00
       C46          C  0.8879140  0.4818790  0.4999930    0.00000       Uiso       1.00
       C47          C  0.4868960  0.8898970  0.4999930    0.00000       Uiso       1.00
       C48          C  0.5181210  0.4060350  0.4999930    0.00000       Uiso       1.00
       C49          C  0.8898970  0.4030020  0.4999930    0.00000       Uiso       1.00
       C50          C  0.4060350  0.8879140  0.4999930    0.00000       Uiso       1.00
       C51          C  0.5969980  0.4868960  0.4999930    0.00000       Uiso       1.00
       C52          C  0.1120860  0.5181210  0.4999930    0.00000       Uiso       1.00
       C53          C  0.5131040  0.1101020  0.4999930    0.00000       Uiso       1.00
       C54          C  0.4818790  0.5939650  0.4999930    0.00000       Uiso       1.00
       C55          C  0.0581610  0.4903380  0.4999930    0.00000       Uiso       1.00
       C56          C  0.4872520  0.0561990  0.4999930    0.00000       Uiso       1.00
       C57          C  0.5096620  0.5678230  0.4999930    0.00000       Uiso       1.00
       C58          C  0.9438010  0.4310530  0.4999930    0.00000       Uiso       1.00
       C59          C  0.4321770  0.9418390  0.4999930    0.00000       Uiso       1.00
       C60          C  0.5689460  0.5127470  0.4999930    0.00000       Uiso       1.00
       C61          C  0.9418390  0.5096620  0.4999930    0.00000       Uiso       1.00
       C62          C  0.5127470  0.9438010  0.4999930    0.00000       Uiso       1.00
       C63          C  0.4903380  0.4321770  0.4999930    0.00000       Uiso       1.00
       C64          C  0.0561990  0.5689460  0.4999930    0.00000       Uiso       1.00
       C65          C  0.5678230  0.0581610  0.4999930    0.00000       Uiso       1.00
       C66          C  0.4310530  0.4872520  0.4999930    0.00000       Uiso       1.00
       H67          H  0.1285250  0.6361640  0.4999930    0.00000       Uiso       1.00
       H68          H  0.6330200  0.1315100  0.4999930    0.00000       Uiso       1.00
       H69          H  0.3638360  0.4923620  0.4999930    0.00000       Uiso       1.00
       H70          H  0.8684890  0.5015100  0.4999930    0.00000       Uiso       1.00
       H71          H  0.5076380  0.8714740  0.4999930    0.00000       Uiso       1.00
       H72          H  0.4984900  0.3669790  0.4999930    0.00000       Uiso       1.00
       H73          H  0.8714740  0.3638360  0.4999930    0.00000       Uiso       1.00
       H74          H  0.3669790  0.8684890  0.4999930    0.00000       Uiso       1.00
       H75          H  0.6361640  0.5076380  0.4999930    0.00000       Uiso       1.00
       H76          H  0.1315100  0.4984900  0.4999930    0.00000       Uiso       1.00
       H77          H  0.4923620  0.1285250  0.4999930    0.00000       Uiso       1.00
       H78          H  0.5015100  0.6330200  0.4999930    0.00000       Uiso       1.00
       C79          C  0.0275880  0.5143020  0.4999930    0.00000       Uiso       1.00
       C80          C  0.4856980  0.5132860  0.4999930    0.00000       Uiso       1.00
       C81          C  0.4867140  0.9724120  0.4999930    0.00000       Uiso       1.00
       C82          C  0.9724120  0.4856980  0.4999930    0.00000       Uiso       1.00
       C83          C  0.5143020  0.4867140  0.4999930    0.00000       Uiso       1.00
       C84          C  0.5132860  0.0275880  0.4999930    0.00000       Uiso       1.00
       H85          H  0.9576760  0.5483620  0.4999930    0.00000       Uiso       1.00
       H86          H  0.5515770  0.9610761  0.4999930    0.00000       Uiso       1.00
       H87          H  0.4516380  0.4093150  0.4999930    0.00000       Uiso       1.00
       H88          H  0.0389230  0.5905000  0.4999930    0.00000       Uiso       1.00
       H89          H  0.5906850  0.0423240  0.4999930    0.00000       Uiso       1.00
       H90          H  0.4095000  0.4484230  0.4999930    0.00000       Uiso       1.00
       H91          H  0.0423240  0.4516380  0.4999930    0.00000       Uiso       1.00
       H92          H  0.4484230  0.0389230  0.4999930    0.00000       Uiso       1.00
       H93          H  0.5483620  0.5906850  0.4999930    0.00000       Uiso       1.00
       H94          H  0.9610760  0.4095000  0.4999930    0.00000       Uiso       1.00
       H95          H  0.4093150  0.9576760  0.4999930    0.00000       Uiso       1.00
       H96          H  0.5905000  0.5515770  0.4999930    0.00000       Uiso       1.00
