data_BF-COF-1
_audit_creation_date              0000-00-00
_audit_creation_method            'LanYouShi'
_symmetry_space_group_name_H-M    'P1'
_cell_length_a                    16.1180000
_cell_length_b                    16.1180000
_cell_length_c                    16.1466999
_cell_angle_alpha                 90.0000000
_cell_angle_beta                  90.0000000
_cell_angle_gamma                 90.0000000
loop_
_atom_site_label
_atom_site_type_symbol
_atom_site_fract_x
_atom_site_fract_y
_atom_site_fract_z
_atom_site_U_iso_or_equiv
_atom_site_adp_type
_atom_site_occupancy
        C1          C  0.3436820  0.6028570  0.3374310    0.00000       Uiso       1.00
        N2          N  0.4077180  0.6181510  0.3896540    0.00000       Uiso       1.00
        H3          H  0.3141020  0.5468370  0.3413320    0.00000       Uiso       1.00
        C4          C  0.8360490  0.3370520  0.1006500    0.00000       Uiso       1.00
        N5          N  0.8895810  0.3991290  0.1191490    0.00000       Uiso       1.00
        H6          H  0.8391970  0.3102220  0.0433040    0.00000       Uiso       1.00
        C7          C  0.8375530  0.5933530  0.8449790    0.00000       Uiso       1.00
        N8          N  0.8903470  0.6109650  0.9077830    0.00000       Uiso       1.00
        H9          H  0.8398550  0.5357630  0.8184170    0.00000       Uiso       1.00
       C10          C  0.6563160  0.3971480  0.3374310    0.00000       Uiso       1.00
       N11          N  0.5922810  0.3818540  0.3896540    0.00000       Uiso       1.00
       H12          H  0.6858960  0.4531680  0.3413320    0.00000       Uiso       1.00
       C13          C  0.1639490  0.6629530  0.1006500    0.00000       Uiso       1.00
       N14          N  0.1104170  0.6008760  0.1191490    0.00000       Uiso       1.00
       H15          H  0.1608010  0.6897830  0.0433040    0.00000       Uiso       1.00
       C16          C  0.1624460  0.4066520  0.8449790    0.00000       Uiso       1.00
       N17          N  0.1096520  0.3890400  0.9077830    0.00000       Uiso       1.00
       H18          H  0.1601430  0.4642420  0.8184170    0.00000       Uiso       1.00
       C19          C  0.6028540  0.6563190  0.6625830    0.00000       Uiso       1.00
       N20          N  0.6181470  0.5922840  0.6103600    0.00000       Uiso       1.00
       H21          H  0.5468330  0.6859000  0.6586830    0.00000       Uiso       1.00
       C22          C  0.3370480  0.1639520  0.8993650    0.00000       Uiso       1.00
       N23          N  0.3991260  0.1104210  0.8808660    0.00000       Uiso       1.00
       H24          H  0.3102190  0.1608050  0.9567110    0.00000       Uiso       1.00
       C25          C  0.5933500  0.1624490  0.1550350    0.00000       Uiso       1.00
       N26          N  0.6109620  0.1096550  0.0922310    0.00000       Uiso       1.00
       H27          H  0.5357590  0.1601470  0.1815970    0.00000       Uiso       1.00
       C28          C  0.3971440  0.3436860  0.6625830    0.00000       Uiso       1.00
       N29          N  0.3818510  0.4077210  0.6103600    0.00000       Uiso       1.00
       H30          H  0.4531650  0.3141050  0.6586830    0.00000       Uiso       1.00
       C31          C  0.6629500  0.8360530  0.8993650    0.00000       Uiso       1.00
       N32          N  0.6008730  0.8895840  0.8808660    0.00000       Uiso       1.00
       H33          H  0.6897800  0.8392000  0.9567110    0.00000       Uiso       1.00
       C34          C  0.4066480  0.8375560  0.1550350    0.00000       Uiso       1.00
       N35          N  0.3890370  0.8903500  0.0922310    0.00000       Uiso       1.00
       H36          H  0.4642390  0.8398580  0.1815970    0.00000       Uiso       1.00
       C37          C  0.6111050  0.4896150  0.5010250    0.00000       Uiso       1.00
       C38          C  0.9996151  0.6116660  0.0091840    0.00000       Uiso       1.00
       C39          C  0.3888930  0.5103900  0.5010250    0.00000       Uiso       1.00
       C40          C  0.0003840  0.3883390  0.0091840    0.00000       Uiso       1.00
       C41          C  0.4896120  0.3888960  0.4989890    0.00000       Uiso       1.00
       C42          C  0.6116630  0.0003870  0.9908300    0.00000       Uiso       1.00
       C43          C  0.5103860  0.6111090  0.4989890    0.00000       Uiso       1.00
       C44          C  0.3883360  0.9996180  0.9908300    0.00000       Uiso       1.00
       C45          C  0.4999990  0.0000030  0.1030520    0.00000       Uiso       1.00
       C46          C  0.4999990  0.0000030  0.8801740    0.00000       Uiso       1.00
       C47          C  0.0000000  0.5000030  0.8969620    0.00000       Uiso       1.00
       C48          C  0.0000000  0.5000030  0.1198400    0.00000       Uiso       1.00
       C49          C  0.5512280  0.4390800  0.4436310    0.00000       Uiso       1.00
       C50          C  0.9436840  0.5562470  0.9525940    0.00000       Uiso       1.00
       C51          C  0.9436060  0.4437210  0.0648790    0.00000       Uiso       1.00
       C52          C  0.4487700  0.5609250  0.4436310    0.00000       Uiso       1.00
       C53          C  0.0563150  0.4437580  0.9525940    0.00000       Uiso       1.00
       C54          C  0.0563930  0.5562840  0.0648790    0.00000       Uiso       1.00
       C55          C  0.4390770  0.4487740  0.5563830    0.00000       Uiso       1.00
       C56          C  0.5562440  0.0563180  0.0474210    0.00000       Uiso       1.00
       C57          C  0.4437180  0.0563960  0.9351350    0.00000       Uiso       1.00
       C58          C  0.5609220  0.5512310  0.5563830    0.00000       Uiso       1.00
       C59          C  0.4437540  0.9436870  0.0474210    0.00000       Uiso       1.00
       C60          C  0.5562810  0.9436090  0.9351350    0.00000       Uiso       1.00
       H61          H  0.4469540  0.3530080  0.4605170    0.00000       Uiso       1.00
       H62          H  0.5249960  0.3445780  0.5358480    0.00000       Uiso       1.00
       H63          H  0.9624180  0.4605110  0.8569290    0.00000       Uiso       1.00
       H64          H  0.9618150  0.5387930  0.1601920    0.00000       Uiso       1.00
       H65          H  0.3483380  0.9613930  0.9517410    0.00000       Uiso       1.00
       H66          H  0.6521850  0.9628240  0.0298690    0.00000       Uiso       1.00
       H67          H  0.5530440  0.6469970  0.4605170    0.00000       Uiso       1.00
       H68          H  0.4750030  0.6554270  0.5358480    0.00000       Uiso       1.00
       H69          H  0.0375800  0.5394940  0.8569290    0.00000       Uiso       1.00
       H70          H  0.0381830  0.4612120  0.1601920    0.00000       Uiso       1.00
       H71          H  0.6516600  0.0386120  0.9517410    0.00000       Uiso       1.00
       H72          H  0.3478140  0.0371810  0.0298690    0.00000       Uiso       1.00
       H73          H  0.3530050  0.5530470  0.5394970    0.00000       Uiso       1.00
       H74          H  0.3445740  0.4750060  0.4641660    0.00000       Uiso       1.00
       H75          H  0.4605080  0.0375840  0.1430850    0.00000       Uiso       1.00
       H76          H  0.5387900  0.0381870  0.8398230    0.00000       Uiso       1.00
       H77          H  0.9613900  0.6516640  0.0482730    0.00000       Uiso       1.00
       H78          H  0.9628200  0.3478170  0.9701460    0.00000       Uiso       1.00
       H79          H  0.6469930  0.4469580  0.5394970    0.00000       Uiso       1.00
       H80          H  0.6554240  0.5249990  0.4641660    0.00000       Uiso       1.00
       H81          H  0.5394900  0.9624210  0.1430850    0.00000       Uiso       1.00
       H82          H  0.4612080  0.9618180  0.8398230    0.00000       Uiso       1.00
       H83          H  0.0386080  0.3483410  0.0482730    0.00000       Uiso       1.00
       H84          H  0.0371780  0.6521880  0.9701460    0.00000       Uiso       1.00
       H85          H  0.5414990  0.5352570  0.3485430    0.00000       Uiso       1.00
       H86          H  0.8482370  0.5385670  0.0470390    0.00000       Uiso       1.00
       H87          H  0.8484020  0.4615750  0.9701070    0.00000       Uiso       1.00
       H88          H  0.4585000  0.4647480  0.3485430    0.00000       Uiso       1.00
       H89          H  0.1517610  0.4614380  0.0470390    0.00000       Uiso       1.00
       H90          H  0.1515960  0.5384300  0.9701070    0.00000       Uiso       1.00
       H91          H  0.5352540  0.4585030  0.6514710    0.00000       Uiso       1.00
       H92          H  0.5385640  0.1517650  0.9529750    0.00000       Uiso       1.00
       H93          H  0.4615710  0.1515990  0.0299080    0.00000       Uiso       1.00
       H94          H  0.4647450  0.5415020  0.6514710    0.00000       Uiso       1.00
       H95          H  0.4614340  0.8482400  0.9529750    0.00000       Uiso       1.00
       H96          H  0.5384270  0.8484060  0.0299080    0.00000       Uiso       1.00
       C97          C  0.7560780  0.7212650  0.8652850    0.00000       Uiso       1.00
       C98          C  0.3689480  0.7271010  0.2517360    0.00000       Uiso       1.00
       C99          C  0.3596370  0.2484770  0.7740320    0.00000       Uiso       1.00
      C100          C  0.2439210  0.2787400  0.8652850    0.00000       Uiso       1.00
      C101          C  0.6310500  0.2729040  0.2517360    0.00000       Uiso       1.00
      C102          C  0.6403610  0.7515280  0.7740320    0.00000       Uiso       1.00
      C103          C  0.7212620  0.2439240  0.1347290    0.00000       Uiso       1.00
      C104          C  0.7270980  0.6310530  0.7482790    0.00000       Uiso       1.00
      C105          C  0.2484740  0.6403640  0.2259830    0.00000       Uiso       1.00
      C106          C  0.2787370  0.7560810  0.1347290    0.00000       Uiso       1.00
      C107          C  0.2729000  0.3689520  0.7482790    0.00000       Uiso       1.00
      C108          C  0.7515250  0.3596410  0.2259830    0.00000       Uiso       1.00
      C109          C  0.7758140  0.6495180  0.8187540    0.00000       Uiso       1.00
      C110          C  0.2280720  0.6873900  0.1548900    0.00000       Uiso       1.00
      C111          C  0.6802800  0.3420240  0.2739890    0.00000       Uiso       1.00
      C112          C  0.2241850  0.3504870  0.8187540    0.00000       Uiso       1.00
      C113          C  0.7719260  0.3126150  0.1548900    0.00000       Uiso       1.00
      C114          C  0.3197180  0.6579810  0.2739890    0.00000       Uiso       1.00
      C115          C  0.6495140  0.2241880  0.1812600    0.00000       Uiso       1.00
      C116          C  0.6873870  0.7719300  0.8451240    0.00000       Uiso       1.00
      C117          C  0.3420210  0.3197220  0.7260260    0.00000       Uiso       1.00
      C118          C  0.3504840  0.7758170  0.1812600    0.00000       Uiso       1.00
      C119          C  0.3126120  0.2280750  0.8451240    0.00000       Uiso       1.00
      C120          C  0.6579770  0.6802830  0.7260260    0.00000       Uiso       1.00
      H121          H  0.7908960  0.7354140  0.9164230    0.00000       Uiso       1.00
      H122          H  0.4206130  0.7406100  0.2861100    0.00000       Uiso       1.00
      H123          H  0.4093740  0.2121250  0.7584940    0.00000       Uiso       1.00
      H124          H  0.2091020  0.2645910  0.9164230    0.00000       Uiso       1.00
      H125          H  0.5793850  0.2593950  0.2861100    0.00000       Uiso       1.00
      H126          H  0.5906240  0.7878800  0.7584940    0.00000       Uiso       1.00
      H127          H  0.7354110  0.2091050  0.0835910    0.00000       Uiso       1.00
      H128          H  0.7406070  0.5793890  0.7139040    0.00000       Uiso       1.00
      H129          H  0.2121220  0.5906270  0.2415200    0.00000       Uiso       1.00
      H130          H  0.2645880  0.7909000  0.0835910    0.00000       Uiso       1.00
      H131          H  0.2593910  0.4206160  0.7139040    0.00000       Uiso       1.00
      H132          H  0.7878760  0.4093780  0.2415200    0.00000       Uiso       1.00
      C133          C  0.8886750  0.5000150  0.0086440    0.00000       Uiso       1.00
      C134          C  0.1113230  0.4999900  0.0086440    0.00000       Uiso       1.00
      C135          C  0.5000120  0.1113270  0.9913701    0.00000       Uiso       1.00
      C136          C  0.4999870  0.8886780  0.9913701    0.00000       Uiso       1.00
      C137          C  0.4999990  0.5000030  0.3888460    0.00000       Uiso       1.00
      C138          C  0.4999990  0.5000030  0.6111680    0.00000       Uiso       1.00
