data_TpBDH
_audit_creation_date              0000-00-00
_audit_creation_method            'LanYouShi'
_symmetry_space_group_name_H-M    'P1'
_cell_length_a                    29.2089005
_cell_length_b                    29.2089005
_cell_length_c                    3.4640999
_cell_angle_alpha                 90.0000000
_cell_angle_beta                  90.0000000
_cell_angle_gamma                 120.0000000
loop_
_atom_site_label
_atom_site_type_symbol
_atom_site_fract_x
_atom_site_fract_y
_atom_site_fract_z
_atom_site_U_iso_or_equiv
_atom_site_adp_type
_atom_site_occupancy
        C1          C  0.3701820  0.5922100  0.5000020    0.00000       Uiso       1.00
        C2          C  0.4077890  0.7779710  0.5000020    0.00000       Uiso       1.00
        C3          C  0.2220280  0.6298170  0.5000020    0.00000       Uiso       1.00
        C4          C  0.6298170  0.4077890  0.5000020    0.00000       Uiso       1.00
        C5          C  0.5922100  0.2220280  0.5000020    0.00000       Uiso       1.00
        C6          C  0.7779710  0.3701820  0.5000020    0.00000       Uiso       1.00
        N7          N  0.4212370  0.6036690  0.5000020    0.00000       Uiso       1.00
        N8          N  0.3963300  0.8175660  0.5000020    0.00000       Uiso       1.00
        N9          N  0.1824330  0.5787620  0.5000020    0.00000       Uiso       1.00
       N10          N  0.5787620  0.3963300  0.5000020    0.00000       Uiso       1.00
       N11          N  0.6036690  0.1824330  0.5000020    0.00000       Uiso       1.00
       N12          N  0.8175659  0.4212370  0.5000020    0.00000       Uiso       1.00
       N13          N  0.4403510  0.5715520  0.5000020    0.00000       Uiso       1.00
       N14          N  0.4284470  0.8687980  0.5000020    0.00000       Uiso       1.00
       N15          N  0.1312010  0.5596480  0.5000020    0.00000       Uiso       1.00
       N16          N  0.5596480  0.4284470  0.5000020    0.00000       Uiso       1.00
       N17          N  0.5715520  0.1312010  0.5000020    0.00000       Uiso       1.00
       N18          N  0.8687980  0.4403510  0.5000020    0.00000       Uiso       1.00
       C19          C  0.4493330  0.4522900  0.5000020    0.00000       Uiso       1.00
       C20          C  0.5477090  0.9970410  0.5000020    0.00000       Uiso       1.00
       C21          C  0.0029580  0.5506660  0.5000020    0.00000       Uiso       1.00
       C22          C  0.5506660  0.5477090  0.5000020    0.00000       Uiso       1.00
       C23          C  0.4522900  0.0029570  0.5000020    0.00000       Uiso       1.00
       C24          C  0.9970410  0.4493330  0.5000020    0.00000       Uiso       1.00
       C25          C  0.4538440  0.5026770  0.5000020    0.00000       Uiso       1.00
       C26          C  0.4973220  0.9511660  0.5000020    0.00000       Uiso       1.00
       C27          C  0.0488330  0.5461550  0.5000020    0.00000       Uiso       1.00
       C28          C  0.5461550  0.4973220  0.5000020    0.00000       Uiso       1.00
       C29          C  0.5026770  0.0488330  0.5000020    0.00000       Uiso       1.00
       C30          C  0.9511660  0.4538440  0.5000020    0.00000       Uiso       1.00
       C31          C  0.5030040  0.5489150  0.5000020    0.00000       Uiso       1.00
       C32          C  0.4510840  0.9540880  0.5000020    0.00000       Uiso       1.00
       C33          C  0.0459110  0.4969950  0.5000020    0.00000       Uiso       1.00
       C34          C  0.4969950  0.4510840  0.5000020    0.00000       Uiso       1.00
       C35          C  0.5489150  0.0459110  0.5000020    0.00000       Uiso       1.00
       C36          C  0.9540879  0.5030040  0.5000020    0.00000       Uiso       1.00
       C37          C  0.4156510  0.5178270  0.5000020    0.00000       Uiso       1.00
       C38          C  0.4821720  0.8978230  0.5000020    0.00000       Uiso       1.00
       C39          C  0.1021760  0.5843480  0.5000020    0.00000       Uiso       1.00
       C40          C  0.5843480  0.4821720  0.5000020    0.00000       Uiso       1.00
       C41          C  0.5178270  0.1021760  0.5000020    0.00000       Uiso       1.00
       C42          C  0.8978230  0.4156510  0.5000020    0.00000       Uiso       1.00
       C43          C  0.4932530  0.5908390  0.5000020    0.00000       Uiso       1.00
       C44          C  0.4091600  0.9024130  0.5000020    0.00000       Uiso       1.00
       C45          C  0.0975860  0.5067460  0.5000020    0.00000       Uiso       1.00
       C46          C  0.5067460  0.4091600  0.5000020    0.00000       Uiso       1.00
       C47          C  0.5908390  0.0975860  0.5000020    0.00000       Uiso       1.00
       C48          C  0.9024130  0.4932530  0.5000020    0.00000       Uiso       1.00
       H49          H  0.6577340  0.4468250  0.5000020    0.00000       Uiso       1.00
       H50          H  0.5531740  0.2109090  0.5000020    0.00000       Uiso       1.00
       H51          H  0.7890900  0.3422650  0.5000020    0.00000       Uiso       1.00
       H52          H  0.3422650  0.5531740  0.5000020    0.00000       Uiso       1.00
       H53          H  0.4468250  0.7890900  0.5000020    0.00000       Uiso       1.00
       H54          H  0.2109090  0.6577340  0.5000020    0.00000       Uiso       1.00
       O55          O  0.6329560  0.5144980  0.5000020    0.00000       Uiso       1.00
       O56          O  0.4855010  0.1184580  0.5000020    0.00000       Uiso       1.00
       O57          O  0.8815410  0.3670430  0.5000020    0.00000       Uiso       1.00
       O58          O  0.3670430  0.4855010  0.5000020    0.00000       Uiso       1.00
       O59          O  0.5144980  0.8815410  0.5000020    0.00000       Uiso       1.00
       O60          O  0.1184580  0.6329560  0.5000020    0.00000       Uiso       1.00
       O61          O  0.4715520  0.3613680  0.5000020    0.00000       Uiso       1.00
       O62          O  0.6386310  0.1101850  0.5000020    0.00000       Uiso       1.00
       O63          O  0.8898140  0.5284470  0.5000020    0.00000       Uiso       1.00
       O64          O  0.5284470  0.6386309  0.5000020    0.00000       Uiso       1.00
       O65          O  0.3613680  0.8898141  0.5000020    0.00000       Uiso       1.00
       O66          O  0.1101850  0.4715520  0.5000020    0.00000       Uiso       1.00
       H67          H  0.4472510  0.6406980  0.5000020    0.00000       Uiso       1.00
       H68          H  0.3593010  0.8065520  0.5000020    0.00000       Uiso       1.00
       H69          H  0.1934470  0.5527480  0.5000020    0.00000       Uiso       1.00
       H70          H  0.5527480  0.3593010  0.5000020    0.00000       Uiso       1.00
       H71          H  0.6406980  0.1934470  0.5000020    0.00000       Uiso       1.00
       H72          H  0.8065520  0.4472510  0.5000020    0.00000       Uiso       1.00
       H73          H  0.5866320  0.5816160  0.5000020    0.00000       Uiso       1.00
       H74          H  0.4183830  0.0050160  0.5000020    0.00000       Uiso       1.00
       H75          H  0.9949830  0.4133670  0.5000020    0.00000       Uiso       1.00
       H76          H  0.4133670  0.4183830  0.5000020    0.00000       Uiso       1.00
       H77          H  0.5816160  0.9949830  0.5000020    0.00000       Uiso       1.00
       H78          H  0.0050160  0.5866320  0.5000020    0.00000       Uiso       1.00
       C79          C  0.6119480  0.3143370  0.5000020    0.00000       Uiso       1.00
       C80          C  0.6471640  0.3699760  0.5000020    0.00000       Uiso       1.00
       C81          C  0.6856620  0.2976110  0.5000020    0.00000       Uiso       1.00
       C82          C  0.6300230  0.2771880  0.5000020    0.00000       Uiso       1.00
       C83          C  0.7023880  0.3880510  0.5000020    0.00000       Uiso       1.00
       C84          C  0.7228110  0.3528350  0.5000020    0.00000       Uiso       1.00
       C85          C  0.3880510  0.6856620  0.5000020    0.00000       Uiso       1.00
       C86          C  0.3528350  0.6300230  0.5000020    0.00000       Uiso       1.00
       C87          C  0.3143370  0.7023880  0.5000020    0.00000       Uiso       1.00
       C88          C  0.3699760  0.7228110  0.5000020    0.00000       Uiso       1.00
       C89          C  0.2976110  0.6119480  0.5000020    0.00000       Uiso       1.00
       C90          C  0.2771880  0.6471640  0.5000020    0.00000       Uiso       1.00
       O91          O  0.5629640  0.2967830  0.5000020    0.00000       Uiso       1.00
       O92          O  0.7032160  0.2661820  0.5000020    0.00000       Uiso       1.00
       O93          O  0.7338170  0.4370350  0.5000020    0.00000       Uiso       1.00
       O94          O  0.4370350  0.7032160  0.5000020    0.00000       Uiso       1.00
       O95          O  0.2967830  0.7338170  0.5000020    0.00000       Uiso       1.00
       O96          O  0.2661820  0.5629640  0.5000020    0.00000       Uiso       1.00
