data_BF-COF-2
_audit_creation_date              0000-00-00
_audit_creation_method            'LanYouShi'
_symmetry_space_group_name_H-M    'P1'
_cell_length_a                    16.2317009
_cell_length_b                    16.2317009
_cell_length_c                    16.2521000
_cell_angle_alpha                 90.0000000
_cell_angle_beta                  90.0000000
_cell_angle_gamma                 90.0000000
loop_
_atom_site_label
_atom_site_type_symbol
_atom_site_fract_x
_atom_site_fract_y
_atom_site_fract_z
_atom_site_U_iso_or_equiv
_atom_site_adp_type
_atom_site_occupancy
        C1          C  0.3463480  0.6103710  0.3422960    0.00000       Uiso       1.00
        C2          C  0.6536520  0.3896290  0.3422960    0.00000       Uiso       1.00
        C3          C  0.6103710  0.6536520  0.6577040    0.00000       Uiso       1.00
        C4          C  0.3896290  0.3463480  0.6577040    0.00000       Uiso       1.00
        H5          H  0.3115770  0.5589140  0.3532420    0.00000       Uiso       1.00
        H6          H  0.6884230  0.4410860  0.3532420    0.00000       Uiso       1.00
        H7          H  0.5589140  0.6884230  0.6467580    0.00000       Uiso       1.00
        H8          H  0.4410860  0.3115770  0.6467580    0.00000       Uiso       1.00
        C9          C  0.8393270  0.3376420  0.1065710    0.00000       Uiso       1.00
       C10          C  0.1606730  0.6623580  0.1065710    0.00000       Uiso       1.00
       C11          C  0.3376420  0.1606730  0.8934290    0.00000       Uiso       1.00
       C12          C  0.6623580  0.8393270  0.8934290    0.00000       Uiso       1.00
       H13          H  0.8492130  0.3056330  0.0531460    0.00000       Uiso       1.00
       H14          H  0.1507870  0.6943670  0.0531460    0.00000       Uiso       1.00
       H15          H  0.3056330  0.1507870  0.9468540    0.00000       Uiso       1.00
       H16          H  0.6943670  0.8492130  0.9468540    0.00000       Uiso       1.00
       C17          C  0.8443950  0.5989090  0.8456600    0.00000       Uiso       1.00
       C18          C  0.1556050  0.4010910  0.8456600    0.00000       Uiso       1.00
       C19          C  0.5989090  0.1556050  0.1543400    0.00000       Uiso       1.00
       C20          C  0.4010910  0.8443950  0.1543400    0.00000       Uiso       1.00
       N21          N  0.8925840  0.6130750  0.9123910    0.00000       Uiso       1.00
       N22          N  0.1074160  0.3869250  0.9123910    0.00000       Uiso       1.00
       N23          N  0.6130750  0.1074160  0.0876090    0.00000       Uiso       1.00
       N24          N  0.3869250  0.8925840  0.0876090    0.00000       Uiso       1.00
       H25          H  0.8536930  0.5451760  0.8139060    0.00000       Uiso       1.00
       H26          H  0.1463070  0.4548240  0.8139060    0.00000       Uiso       1.00
       H27          H  0.5451760  0.1463070  0.1860940    0.00000       Uiso       1.00
       H28          H  0.4548240  0.8536930  0.1860940    0.00000       Uiso       1.00
       H29          H  0.8847970  0.6667930  0.9378030    0.00000       Uiso       1.00
       H30          H  0.1152030  0.3332070  0.9378030    0.00000       Uiso       1.00
       H31          H  0.6667930  0.1152030  0.0621970    0.00000       Uiso       1.00
       H32          H  0.3332070  0.8847970  0.0621970    0.00000       Uiso       1.00
       N33          N  0.6211810  0.5856490  0.6102960    0.00000       Uiso       1.00
       N34          N  0.3788190  0.4143510  0.6102960    0.00000       Uiso       1.00
       N35          N  0.5856490  0.3788190  0.3897040    0.00000       Uiso       1.00
       N36          N  0.4143510  0.6211810  0.3897040    0.00000       Uiso       1.00
       H37          H  0.6726500  0.5561540  0.6194660    0.00000       Uiso       1.00
       H38          H  0.3273500  0.4438460  0.6194660    0.00000       Uiso       1.00
       H39          H  0.5561540  0.3273500  0.3805340    0.00000       Uiso       1.00
       H40          H  0.4438460  0.6726500  0.3805340    0.00000       Uiso       1.00
       N41          N  0.5962570  0.8882630  0.8785250    0.00000       Uiso       1.00
       N42          N  0.4037430  0.1117370  0.8785250    0.00000       Uiso       1.00
       N43          N  0.8882630  0.4037430  0.1214750    0.00000       Uiso       1.00
       N44          N  0.1117370  0.5962570  0.1214750    0.00000       Uiso       1.00
       H45          H  0.5706070  0.8800560  0.8250560    0.00000       Uiso       1.00
       H46          H  0.4293930  0.1199430  0.8250560    0.00000       Uiso       1.00
       H47          H  0.8800560  0.4293930  0.1749440    0.00000       Uiso       1.00
       H48          H  0.1199430  0.5706070  0.1749440    0.00000       Uiso       1.00
       C49          C  0.6096560  0.4854800  0.5007800    0.00000       Uiso       1.00
       C50          C  0.3903440  0.5145200  0.5007800    0.00000       Uiso       1.00
       C51          C  0.4854800  0.3903440  0.4992200    0.00000       Uiso       1.00
       C52          C  0.5145200  0.6096560  0.4992200    0.00000       Uiso       1.00
       C53          C  0.0024620  0.6106890  0.0110880    0.00000       Uiso       1.00
       C54          C  0.9975380  0.3893110  0.0110880    0.00000       Uiso       1.00
       C55          C  0.6106890  0.9975380  0.9889119    0.00000       Uiso       1.00
       C56          C  0.3893110  0.0024620  0.9889119    0.00000       Uiso       1.00
       C57          C  0.5000000  0.0000000  0.1001740    0.00000       Uiso       1.00
       C58          C  0.0000000  0.5000000  0.8998260    0.00000       Uiso       1.00
       C59          C  0.5000000  0.0000000  0.8790080    0.00000       Uiso       1.00
       C60          C  0.0000000  0.5000000  0.1209920    0.00000       Uiso       1.00
       C61          C  0.5482670  0.4375880  0.4437110    0.00000       Uiso       1.00
       C62          C  0.4517330  0.5624120  0.4437110    0.00000       Uiso       1.00
       C63          C  0.4375880  0.4517330  0.5562890    0.00000       Uiso       1.00
       C64          C  0.5624120  0.5482670  0.5562890    0.00000       Uiso       1.00
       C65          C  0.9451360  0.5570360  0.9551640    0.00000       Uiso       1.00
       C66          C  0.0548630  0.4429640  0.9551640    0.00000       Uiso       1.00
       C67          C  0.5570360  0.0548630  0.0448360    0.00000       Uiso       1.00
       C68          C  0.4429640  0.9451360  0.0448360    0.00000       Uiso       1.00
       C69          C  0.9425370  0.4455630  0.0665170    0.00000       Uiso       1.00
       C70          C  0.0574630  0.5544370  0.0665170    0.00000       Uiso       1.00
       C71          C  0.4455630  0.0574630  0.9334830    0.00000       Uiso       1.00
       C72          C  0.5544370  0.9425370  0.9334830    0.00000       Uiso       1.00
       H73          H  0.5195520  0.3452880  0.5356070    0.00000       Uiso       1.00
       H74          H  0.4804480  0.6547120  0.5356070    0.00000       Uiso       1.00
       H75          H  0.3452880  0.4804480  0.4643940    0.00000       Uiso       1.00
       H76          H  0.6547120  0.5195520  0.4643940    0.00000       Uiso       1.00
       H77          H  0.4414460  0.3560180  0.4616130    0.00000       Uiso       1.00
       H78          H  0.5585540  0.6439820  0.4616130    0.00000       Uiso       1.00
       H79          H  0.3560180  0.5585540  0.5383870    0.00000       Uiso       1.00
       H80          H  0.6439820  0.4414460  0.5383870    0.00000       Uiso       1.00
       H81          H  0.0378960  0.5386930  0.8601200    0.00000       Uiso       1.00
       H82          H  0.9621040  0.4613070  0.8601200    0.00000       Uiso       1.00
       H83          H  0.5386930  0.9621040  0.1398800    0.00000       Uiso       1.00
       H84          H  0.4613070  0.0378960  0.1398800    0.00000       Uiso       1.00
       H85          H  0.0366770  0.4602110  0.1611840    0.00000       Uiso       1.00
       H86          H  0.9633230  0.5397890  0.1611840    0.00000       Uiso       1.00
       H87          H  0.4602110  0.9633230  0.8388160    0.00000       Uiso       1.00
       H88          H  0.5397890  0.0366770  0.8388160    0.00000       Uiso       1.00
       H89          H  0.3502910  0.0406600  0.0281370    0.00000       Uiso       1.00
       H90          H  0.6497090  0.9593400  0.0281370    0.00000       Uiso       1.00
       H91          H  0.0406600  0.6497090  0.9718630    0.00000       Uiso       1.00
       H92          H  0.9593400  0.3502910  0.9718630    0.00000       Uiso       1.00
       H93          H  0.6516220  0.0339010  0.9497300    0.00000       Uiso       1.00
       H94          H  0.3483780  0.9660990  0.9497300    0.00000       Uiso       1.00
       H95          H  0.0339010  0.3483780  0.0502710    0.00000       Uiso       1.00
       H96          H  0.9660990  0.6516220  0.0502710    0.00000       Uiso       1.00
       H97          H  0.5427590  0.5331340  0.3492320    0.00000       Uiso       1.00
       H98          H  0.4572410  0.4668660  0.3492320    0.00000       Uiso       1.00
       H99          H  0.5331340  0.4572410  0.6507680    0.00000       Uiso       1.00
      H100          H  0.4668660  0.5427590  0.6507680    0.00000       Uiso       1.00
      H101          H  0.8502860  0.5420880  0.0495380    0.00000       Uiso       1.00
      H102          H  0.1497140  0.4579120  0.0495380    0.00000       Uiso       1.00
      H103          H  0.5420880  0.1497140  0.9504620    0.00000       Uiso       1.00
      H104          H  0.4579120  0.8502860  0.9504620    0.00000       Uiso       1.00
      H105          H  0.8480330  0.4655920  0.9731070    0.00000       Uiso       1.00
      H106          H  0.1519660  0.5344080  0.9731070    0.00000       Uiso       1.00
      H107          H  0.4655920  0.1519660  0.0268930    0.00000       Uiso       1.00
      H108          H  0.5344080  0.8480330  0.0268930    0.00000       Uiso       1.00
      C109          C  0.7564680  0.7245290  0.8636450    0.00000       Uiso       1.00
      C110          C  0.2435320  0.2754710  0.8636450    0.00000       Uiso       1.00
      C111          C  0.7245290  0.2435320  0.1363550    0.00000       Uiso       1.00
      C112          C  0.2754710  0.7564680  0.1363550    0.00000       Uiso       1.00
      C113          C  0.3687430  0.7325030  0.2508180    0.00000       Uiso       1.00
      C114          C  0.6312570  0.2674970  0.2508180    0.00000       Uiso       1.00
      C115          C  0.7325030  0.6312570  0.7491820    0.00000       Uiso       1.00
      C116          C  0.2674970  0.3687430  0.7491820    0.00000       Uiso       1.00
      C117          C  0.3570130  0.2506520  0.7697650    0.00000       Uiso       1.00
      C118          C  0.6429870  0.7493480  0.7697650    0.00000       Uiso       1.00
      C119          C  0.2506520  0.6429870  0.2302350    0.00000       Uiso       1.00
      C120          C  0.7493480  0.3570130  0.2302350    0.00000       Uiso       1.00
      C121          C  0.7797220  0.6523160  0.8197290    0.00000       Uiso       1.00
      C122          C  0.2202780  0.3476840  0.8197290    0.00000       Uiso       1.00
      C123          C  0.6523160  0.2202780  0.1802710    0.00000       Uiso       1.00
      C124          C  0.3476840  0.7797220  0.1802710    0.00000       Uiso       1.00
      C125          C  0.2269640  0.6871350  0.1585180    0.00000       Uiso       1.00
      C126          C  0.7730360  0.3128650  0.1585180    0.00000       Uiso       1.00
      C127          C  0.6871350  0.7730360  0.8414820    0.00000       Uiso       1.00
      C128          C  0.3128650  0.2269640  0.8414820    0.00000       Uiso       1.00
      C129          C  0.6777270  0.3371340  0.2763510    0.00000       Uiso       1.00
      C130          C  0.3222730  0.6628660  0.2763510    0.00000       Uiso       1.00
      C131          C  0.3371340  0.3222730  0.7236490    0.00000       Uiso       1.00
      C132          C  0.6628660  0.6777270  0.7236490    0.00000       Uiso       1.00
      O133          O  0.7966200  0.7465620  0.9260140    0.00000       Uiso       1.00
      O134          O  0.2033800  0.2534380  0.9260140    0.00000       Uiso       1.00
      O135          O  0.7465620  0.2033800  0.0739860    0.00000       Uiso       1.00
      O136          O  0.2534380  0.7966200  0.0739860    0.00000       Uiso       1.00
      O137          O  0.4321420  0.7528880  0.2903100    0.00000       Uiso       1.00
      O138          O  0.5678580  0.2471120  0.2903100    0.00000       Uiso       1.00
      O139          O  0.7528880  0.5678580  0.7096900    0.00000       Uiso       1.00
      O140          O  0.2471120  0.4321420  0.7096900    0.00000       Uiso       1.00
      O141          O  0.4176100  0.2086200  0.7461510    0.00000       Uiso       1.00
      O142          O  0.5823900  0.7913800  0.7461510    0.00000       Uiso       1.00
      O143          O  0.2086200  0.5823900  0.2538490    0.00000       Uiso       1.00
      O144          O  0.7913800  0.4176100  0.2538490    0.00000       Uiso       1.00
      C145          C  0.8892020  0.5027920  0.0111100    0.00000       Uiso       1.00
      C146          C  0.1107980  0.4972080  0.0111100    0.00000       Uiso       1.00
      C147          C  0.5027920  0.1107980  0.9888900    0.00000       Uiso       1.00
      C148          C  0.4972080  0.8892020  0.9888900    0.00000       Uiso       1.00
      C149          C  0.5000000  0.5000000  0.3892470    0.00000       Uiso       1.00
      C150          C  0.5000000  0.5000000  0.6107530    0.00000       Uiso       1.00
