data_TPB-DMTP-COF
_audit_creation_date              0000-00-00
_audit_creation_method            'LanYouShi'
_symmetry_space_group_name_H-M    'P1'
_cell_length_a                    3.8006999
_cell_length_b                    37.7533989
_cell_length_c                    37.7533989
_cell_angle_alpha                 120.0000000
_cell_angle_beta                  90.0000000
_cell_angle_gamma                 90.0000000
loop_
_atom_site_label
_atom_site_type_symbol
_atom_site_fract_x
_atom_site_fract_y
_atom_site_fract_z
_atom_site_U_iso_or_equiv
_atom_site_adp_type
_atom_site_occupancy
        C1          C -2.4834189  0.4725990 -0.1875860    0.00000       Uiso       1.00
        C2          C -2.4834189  0.4433630 -0.1751040    0.00000       Uiso       1.00
        C3          C -2.4834189  0.3818940 -0.1437970    0.00000       Uiso       1.00
        C4          C -2.4834189  0.3595580 -0.1226880    0.00000       Uiso       1.00
        C5          C -2.4834189  0.4843130  0.7540990    0.00000       Uiso       1.00
        C6          C -2.4834189  0.5525180  0.6718060    0.00000       Uiso       1.00
        C7          C -2.4834189  0.5755540  0.6514040    0.00000       Uiso       1.00
        C8          C -2.4834189  0.4564570 -0.2308640    0.00000       Uiso       1.00
        N9          N -2.4834189  0.5488240  0.7313990    0.00000       Uiso       1.00
       C10          C -2.4834189  0.3113850 -0.0155140    0.00000       Uiso       1.00
       C11          C -2.4834189  0.2879550 -0.0592660    0.00000       Uiso       1.00
       C12          C -2.4834189  0.1563560 -0.1281210    0.00000       Uiso       1.00
       C13          C -2.4834189  0.2437350 -0.0823510    0.00000       Uiso       1.00
       O14          O -2.4834189  0.4694970  0.7088090    0.00000       Uiso       1.00
       C15          C -2.4834189  0.6143940  0.3389420    0.00000       Uiso       1.00
       C16          C -2.4834189  0.0420250 -0.1748770    0.00000       Uiso       1.00
       C17          C -2.4834189  0.0837430 -0.1456410    0.00000       Uiso       1.00
       C18          C -2.4834189  0.1765180 -0.0841720    0.00000       Uiso       1.00
       C19          C -2.4834189  0.2199640 -0.0618360    0.00000       Uiso       1.00
       C20          C -2.4834189  0.9719970  0.8134090    0.00000       Uiso       1.00
       C21          C -2.4834189  0.8214980  0.7452040    0.00000       Uiso       1.00
       C22          C -2.4834189  0.7780600  0.7221680    0.00000       Uiso       1.00
       C23          C -2.4834189  0.0148890 -0.1587340    0.00000       Uiso       1.00
       N24          N -2.4834189  0.8847850  0.7488980    0.00000       Uiso       1.00
       C25          C -2.4834189  0.3753100 -0.0136630    0.00000       Uiso       1.00
       C26          C -2.4834189  0.3549890  0.0097680    0.00000       Uiso       1.00
       C27          C -2.4834189  0.4177330  0.1413660    0.00000       Uiso       1.00
       C28          C -2.4834189  0.3761230  0.0539870    0.00000       Uiso       1.00
       O29          O -2.4834189  0.9415220  0.8282250    0.00000       Uiso       1.00
       C30          C -2.4834189  0.4267580  0.6833280    0.00000       Uiso       1.00
       C31          C -2.4834189  0.4853080  0.2556980    0.00000       Uiso       1.00
       C32          C -2.4834189  0.4728260  0.2139800    0.00000       Uiso       1.00
       C33          C -2.4834189  0.4415190  0.1212040    0.00000       Uiso       1.00
       C34          C -2.4834189  0.4204100  0.0777590    0.00000       Uiso       1.00
       C35          C -2.4834189  0.5436220  0.3257250    0.00000       Uiso       1.00
       C36          C -2.4834189  0.6259160  0.4762240    0.00000       Uiso       1.00
       C37          C -2.4834189  0.6463180  0.5196620    0.00000       Uiso       1.00
       C38          C -2.4834189  0.5285860  0.2828330    0.00000       Uiso       1.00
       N39          N -2.4834189  0.5663230  0.4129370    0.00000       Uiso       1.00
       C40          C -2.4834189  0.3132360 -0.0775880    0.00000       Uiso       1.00
       C41          C -2.4834189  0.3569880 -0.0572670    0.00000       Uiso       1.00
       C42          C -2.4834189  0.4258430 -0.1200100    0.00000       Uiso       1.00
       C43          C -2.4834189  0.3800730 -0.0784010    0.00000       Uiso       1.00
       O44          O -2.4834189  0.5889130  0.3562000    0.00000       Uiso       1.00
       C45          C -2.4834189  0.9587789  0.8709630    0.00000       Uiso       1.00
       C46          C -2.4834189  0.5273560  0.7830760    0.00000       Uiso       1.00
       C47          C -2.4834189  0.5565910  0.7705930    0.00000       Uiso       1.00
       C48          C -2.4834189  0.6180600  0.7392870    0.00000       Uiso       1.00
       C49          C -2.4834189  0.6403970  0.7181780    0.00000       Uiso       1.00
       C50          C -2.4834189  0.5156420 -0.1586100    0.00000       Uiso       1.00
       C51          C -2.4834189  0.4474370 -0.0763160    0.00000       Uiso       1.00
       C52          C -2.4834189  0.4244010 -0.0559140    0.00000       Uiso       1.00
       C53          C -2.4834189  0.5434980  0.8263540    0.00000       Uiso       1.00
       N54          N -2.4834189  0.4511310 -0.1359090    0.00000       Uiso       1.00
       C55          C -2.4834189  0.6885690  0.6110040    0.00000       Uiso       1.00
       C56          C -2.4834189  0.7120000  0.6547560    0.00000       Uiso       1.00
       C57          C -2.4834189  0.8435980  0.7236110    0.00000       Uiso       1.00
       C58          C -2.4834189  0.7562190  0.6778410    0.00000       Uiso       1.00
       O59          O -2.4834189  0.5304580 -0.1133190    0.00000       Uiso       1.00
       C60          C -2.4834189  0.3855610  0.2565470    0.00000       Uiso       1.00
       C61          C -2.4834189  0.9579300  0.7703660    0.00000       Uiso       1.00
       C62          C -2.4834189  0.9162120  0.7411300    0.00000       Uiso       1.00
       C63          C -2.4834189  0.8234360  0.6796620    0.00000       Uiso       1.00
       C64          C -2.4834189  0.7799910  0.6573250    0.00000       Uiso       1.00
       C65          C -2.4834189  0.0279580 -0.2179200    0.00000       Uiso       1.00
       C66          C -2.4834189  0.1784570 -0.1497140    0.00000       Uiso       1.00
       C67          C -2.4834189  0.2218950 -0.1266790    0.00000       Uiso       1.00
       C68          C -2.4834189  0.9850650  0.7542240    0.00000       Uiso       1.00
       N69          N -2.4834189  0.1151700 -0.1534080    0.00000       Uiso       1.00
       C70          C -2.4834189  0.6246440  0.6091530    0.00000       Uiso       1.00
       C71          C -2.4834189  0.6449660  0.5857220    0.00000       Uiso       1.00
       C72          C -2.4834189  0.5822220  0.4541230    0.00000       Uiso       1.00
       C73          C -2.4834189  0.6238310  0.5415020    0.00000       Uiso       1.00
       O74          O -2.4834189  0.0584320 -0.2327350    0.00000       Uiso       1.00
       C75          C -2.4834189  0.5731960 -0.0878390    0.00000       Uiso       1.00
       C76          C -2.4834189  0.5146460  0.3397920    0.00000       Uiso       1.00
       C77          C -2.4834189  0.5271280  0.3815100    0.00000       Uiso       1.00
       C78          C -2.4834189  0.5584350  0.4742860    0.00000       Uiso       1.00
       C79          C -2.4834189  0.5795440  0.5177310    0.00000       Uiso       1.00
       C80          C -2.4834189  0.4563320  0.2697640    0.00000       Uiso       1.00
       C81          C -2.4834189  0.3740380  0.1192660    0.00000       Uiso       1.00
       C82          C -2.4834189  0.3536360  0.0758280    0.00000       Uiso       1.00
       C83          C -2.4834189  0.4713680  0.3126570    0.00000       Uiso       1.00
       N84          N -2.4834189  0.4336310  0.1825520    0.00000       Uiso       1.00
       C85          C -2.4834189  0.6867180  0.6730770    0.00000       Uiso       1.00
       C86          C -2.4834189  0.6429660  0.6527560    0.00000       Uiso       1.00
       C87          C -2.4834189  0.5741110  0.7155000    0.00000       Uiso       1.00
       C88          C -2.4834189  0.6198810  0.6738910    0.00000       Uiso       1.00
       O89          O -2.4834189  0.4110420  0.2392900    0.00000       Uiso       1.00
       C90          C -2.4834189  0.0411750 -0.2754740    0.00000       Uiso       1.00
       H91          H -2.4834189  0.4093970 -0.1989070    0.00000       Uiso       1.00
       H92          H -2.4834189  0.3659160 -0.1786250    0.00000       Uiso       1.00
       H93          H -2.4834189  0.3246950 -0.1406120    0.00000       Uiso       1.00
       H94          H -2.4834189  0.5176510  0.6541700    0.00000       Uiso       1.00
       H95          H -2.4834189  0.5591870  0.6165580    0.00000       Uiso       1.00
       H96          H -2.4834189  0.4219580 -0.2524950    0.00000       Uiso       1.00
       H97          H -2.4834189  0.2952040  0.0031430    0.00000       Uiso       1.00
       H98          H -2.7628410  0.6253560  0.3389120    0.00000       Uiso       1.00
       H99          H -2.3813961  0.5965840  0.3061960    0.00000       Uiso       1.00
      H100          H -2.3060200  0.6419020  0.3577270    0.00000       Uiso       1.00
      H101          H -2.4834189  0.0939060 -0.1116740    0.00000       Uiso       1.00
      H102          H -2.4834189  0.1576690 -0.0681940    0.00000       Uiso       1.00
      H103          H -2.4834189  0.2369020 -0.0269730    0.00000       Uiso       1.00
      H104          H -2.4834189  0.8387280  0.7800710    0.00000       Uiso       1.00
      H105          H -2.4834189  0.7595800  0.7385350    0.00000       Uiso       1.00
      H106          H -2.4834189  0.0277570 -0.1242360    0.00000       Uiso       1.00
      H107          H -2.4834189  0.4101480  0.0025180    0.00000       Uiso       1.00
      H108          H -2.7423611  0.4137480  0.6870850    0.00000       Uiso       1.00
      H109          H -2.2555120  0.4130580  0.6921180    0.00000       Uiso       1.00
      H110          H -2.4523840  0.4188150  0.6501210    0.00000       Uiso       1.00
      H111          H -2.4834189  0.4966290  0.2038170    0.00000       Uiso       1.00
      H112          H -2.4834189  0.4763470  0.1400540    0.00000       Uiso       1.00
      H113          H -2.4834189  0.4383340  0.0608200    0.00000       Uiso       1.00
      H114          H -2.4834189  0.6435520  0.4589930    0.00000       Uiso       1.00
      H115          H -2.4834189  0.6811640  0.5381410    0.00000       Uiso       1.00
      H116          H -2.4834189  0.5502170  0.2699660    0.00000       Uiso       1.00
      H117          H -2.4834189  0.2945800 -0.1124260    0.00000       Uiso       1.00
      H118          H -2.3983240  0.9347290  0.8790530    0.00000       Uiso       1.00
      H119          H -2.7595201  0.9699540  0.8833000    0.00000       Uiso       1.00
      H120          H -2.2924130  0.9856470  0.8851910    0.00000       Uiso       1.00
      H121          H -2.4834189  0.5905580  0.7943970    0.00000       Uiso       1.00
      H122          H -2.4834189  0.6340380  0.7741140    0.00000       Uiso       1.00
      H123          H -2.4834189  0.6752590  0.7361020    0.00000       Uiso       1.00
      H124          H -2.4834189  0.4823030 -0.0586800    0.00000       Uiso       1.00
      H125          H -2.4834189  0.4407670 -0.0210680    0.00000       Uiso       1.00
      H126          H -2.4834189  0.5779960  0.8479840    0.00000       Uiso       1.00
      H127          H -2.4834189  0.7047500  0.5923470    0.00000       Uiso       1.00
      H128          H -2.3813961  0.3539770  0.2331300    0.00000       Uiso       1.00
      H129          H -2.7628410  0.3827490  0.2658450    0.00000       Uiso       1.00
      H130          H -2.3060200  0.3992960  0.2846600    0.00000       Uiso       1.00
      H131          H -2.4834189  0.9060490  0.7071640    0.00000       Uiso       1.00
      H132          H -2.4834189  0.8422860  0.6636840    0.00000       Uiso       1.00
      H133          H -2.4834189  0.7630520  0.6224630    0.00000       Uiso       1.00
      H134          H -2.4834189  0.1612260 -0.1845810    0.00000       Uiso       1.00
      H135          H -2.4834189  0.2403740 -0.1430450    0.00000       Uiso       1.00
      H136          H -2.4834189  0.9721980  0.7197260    0.00000       Uiso       1.00
      H137          H -2.4834189  0.5898060  0.5929720    0.00000       Uiso       1.00
      H138          H -2.2555120  0.5825990 -0.0652750    0.00000       Uiso       1.00
      H139          H -2.7423611  0.5832880 -0.0703080    0.00000       Uiso       1.00
      H140          H -2.4523840  0.5883550 -0.1072720    0.00000       Uiso       1.00
      H141          H -2.4834189  0.5033250  0.3916730    0.00000       Uiso       1.00
      H142          H -2.4834189  0.5236070  0.4554360    0.00000       Uiso       1.00
      H143          H -2.4834189  0.5616200  0.5346700    0.00000       Uiso       1.00
      H144          H -2.4834189  0.3564030  0.1364960    0.00000       Uiso       1.00
      H145          H -2.4834189  0.3187910  0.0573480    0.00000       Uiso       1.00
      H146          H -2.4834189  0.4497380  0.3255240    0.00000       Uiso       1.00
      H147          H -2.4834189  0.7053750  0.7079150    0.00000       Uiso       1.00
      H148          H -2.7595201  0.0430210 -0.2862400    0.00000       Uiso       1.00
      H149          H -2.3983240  0.0077960 -0.2904860    0.00000       Uiso       1.00
      H150          H -2.2924130  0.0587140 -0.2843480    0.00000       Uiso       1.00
