data_TpBD-NHCOCH3_2
_audit_creation_date              0000-00-00
_audit_creation_method            'LanYouShi'
_symmetry_space_group_name_H-M    'P1'
_cell_length_a                    29.2140007
_cell_length_b                    29.2140007
_cell_length_c                    3.5999999
_cell_angle_alpha                 90.0000000
_cell_angle_beta                  90.0000000
_cell_angle_gamma                 120.0000000
loop_
_atom_site_label
_atom_site_type_symbol
_atom_site_fract_x
_atom_site_fract_y
_atom_site_fract_z
_atom_site_U_iso_or_equiv
_atom_site_adp_type
_atom_site_occupancy
        N1          N  0.4235180  0.6146780  0.5000000    0.00000       Uiso       1.00
        N2          N  0.3853220  0.8088391  0.5000000    0.00000       Uiso       1.00
        N3          N  0.1911610  0.5764820  0.5000000    0.00000       Uiso       1.00
        N4          N  0.5764820  0.3853220  0.5000000    0.00000       Uiso       1.00
        N5          N  0.6146780  0.1911610  0.5000000    0.00000       Uiso       1.00
        N6          N  0.8088390  0.4235180  0.5000000    0.00000       Uiso       1.00
        C7          C  0.3718000  0.5984540  0.5000000    0.00000       Uiso       1.00
        C8          C  0.4442590  0.5818540  0.5000000    0.00000       Uiso       1.00
        C9          C  0.4123210  0.5273710  0.5000000    0.00000       Uiso       1.00
       C10          C  0.4345750  0.4961430  0.5000000    0.00000       Uiso       1.00
       C11          C  0.4890430  0.5173770  0.5000000    0.00000       Uiso       1.00
       C12          C  0.5204870  0.5722690  0.5000000    0.00000       Uiso       1.00
       C13          C  0.4985390  0.6040990  0.5000000    0.00000       Uiso       1.00
       H14          H  0.3685680  0.4165670  0.2410390    0.00000       Uiso       1.00
       H15          H  0.3685680  0.4165670  0.7589610    0.00000       Uiso       1.00
       N16          N  0.3529300  0.5027950  0.5000000    0.00000       Uiso       1.00
       C17          C  0.3180480  0.4434720  0.5000000    0.00000       Uiso       1.00
       H18          H  0.3348920  0.5283930  0.5000000    0.00000       Uiso       1.00
       C19          C  0.3430740  0.4079790  0.5000000    0.00000       Uiso       1.00
       O20          O  0.2586560  0.4189940  0.5000000    0.00000       Uiso       1.00
       H21          H  0.3104410  0.3647520  0.5000000    0.00000       Uiso       1.00
       C22          C  0.4015460  0.7733460  0.5000000    0.00000       Uiso       1.00
       C23          C  0.4181460  0.8624040  0.5000000    0.00000       Uiso       1.00
       C24          C  0.4726290  0.8849500  0.5000000    0.00000       Uiso       1.00
       C25          C  0.5038570  0.9384329  0.5000000    0.00000       Uiso       1.00
       C26          C  0.4826230  0.9716660  0.5000000    0.00000       Uiso       1.00
       C27          C  0.4277310  0.9482180  0.5000000    0.00000       Uiso       1.00
       C28          C  0.3959010  0.8944399  0.5000000    0.00000       Uiso       1.00
       H29          H  0.5834330  0.9520010  0.2410390    0.00000       Uiso       1.00
       H30          H  0.5834330  0.9520010  0.7589610    0.00000       Uiso       1.00
       N31          N  0.4972050  0.8501350  0.5000000    0.00000       Uiso       1.00
       C32          C  0.5565280  0.8745760  0.5000000    0.00000       Uiso       1.00
       H33          H  0.4716070  0.8064990  0.5000000    0.00000       Uiso       1.00
       C34          C  0.5920210  0.9350940  0.5000000    0.00000       Uiso       1.00
       O35          O  0.5810060  0.8396620  0.5000000    0.00000       Uiso       1.00
       H36          H  0.6352480  0.9456900  0.5000000    0.00000       Uiso       1.00
       C37          C  0.2266540  0.6282000  0.5000000    0.00000       Uiso       1.00
       C38          C  0.1375960  0.5557410  0.5000000    0.00000       Uiso       1.00
       C39          C  0.1150500  0.5876790  0.5000000    0.00000       Uiso       1.00
       C40          C  0.0615670  0.5654250  0.5000000    0.00000       Uiso       1.00
       C41          C  0.0283340  0.5109570  0.5000000    0.00000       Uiso       1.00
       C42          C  0.0517820  0.4795120  0.5000000    0.00000       Uiso       1.00
       C43          C  0.1055600  0.5014610  0.5000000    0.00000       Uiso       1.00
       H44          H  0.0479990  0.6314320  0.2410390    0.00000       Uiso       1.00
       H45          H  0.0479990  0.6314320  0.7589610    0.00000       Uiso       1.00
       N46          N  0.1498650  0.6470690  0.5000000    0.00000       Uiso       1.00
       C47          C  0.1254240  0.6819520  0.5000000    0.00000       Uiso       1.00
       H48          H  0.1935010  0.6651080  0.5000000    0.00000       Uiso       1.00
       C49          C  0.0649060  0.6569260  0.5000000    0.00000       Uiso       1.00
       O50          O  0.1603380  0.7413440  0.5000000    0.00000       Uiso       1.00
       H51          H  0.0543100  0.6895590  0.5000000    0.00000       Uiso       1.00
       C52          C  0.6282000  0.4015460  0.5000000    0.00000       Uiso       1.00
       C53          C  0.5557410  0.4181460  0.5000000    0.00000       Uiso       1.00
       C54          C  0.5876790  0.4726290  0.5000000    0.00000       Uiso       1.00
       C55          C  0.5654250  0.5038570  0.5000000    0.00000       Uiso       1.00
       C56          C  0.5109570  0.4826230  0.5000000    0.00000       Uiso       1.00
       C57          C  0.4795120  0.4277310  0.5000000    0.00000       Uiso       1.00
       C58          C  0.5014610  0.3959010  0.5000000    0.00000       Uiso       1.00
       H59          H  0.6314320  0.5834330  0.2410390    0.00000       Uiso       1.00
       H60          H  0.6314320  0.5834330  0.7589610    0.00000       Uiso       1.00
       N61          N  0.6470700  0.4972050  0.5000000    0.00000       Uiso       1.00
       C62          C  0.6819520  0.5565280  0.5000000    0.00000       Uiso       1.00
       H63          H  0.6651080  0.4716070  0.5000000    0.00000       Uiso       1.00
       C64          C  0.6569260  0.5920210  0.5000000    0.00000       Uiso       1.00
       O65          O  0.7413440  0.5810060  0.5000000    0.00000       Uiso       1.00
       H66          H  0.6895590  0.6352480  0.5000000    0.00000       Uiso       1.00
       C67          C  0.5984540  0.2266540  0.5000000    0.00000       Uiso       1.00
       C68          C  0.5818540  0.1375960  0.5000000    0.00000       Uiso       1.00
       C69          C  0.5273710  0.1150500  0.5000000    0.00000       Uiso       1.00
       C70          C  0.4961430  0.0615670  0.5000000    0.00000       Uiso       1.00
       C71          C  0.5173770  0.0283340  0.5000000    0.00000       Uiso       1.00
       C72          C  0.5722690  0.0517820  0.5000000    0.00000       Uiso       1.00
       C73          C  0.6040990  0.1055600  0.5000000    0.00000       Uiso       1.00
       H74          H  0.4165670  0.0479990  0.2410390    0.00000       Uiso       1.00
       H75          H  0.4165670  0.0479990  0.7589610    0.00000       Uiso       1.00
       N76          N  0.5027950  0.1498650  0.5000000    0.00000       Uiso       1.00
       C77          C  0.4434720  0.1254240  0.5000000    0.00000       Uiso       1.00
       H78          H  0.5283930  0.1935010  0.5000000    0.00000       Uiso       1.00
       C79          C  0.4079790  0.0649060  0.5000000    0.00000       Uiso       1.00
       O80          O  0.4189940  0.1603380  0.5000000    0.00000       Uiso       1.00
       H81          H  0.3647520  0.0543100  0.5000000    0.00000       Uiso       1.00
       C82          C  0.7733460  0.3718000  0.5000000    0.00000       Uiso       1.00
       C83          C  0.8624040  0.4442590  0.5000000    0.00000       Uiso       1.00
       C84          C  0.8849500  0.4123210  0.5000000    0.00000       Uiso       1.00
       C85          C  0.9384330  0.4345750  0.5000000    0.00000       Uiso       1.00
       C86          C  0.9716660  0.4890430  0.5000000    0.00000       Uiso       1.00
       C87          C  0.9482180  0.5204870  0.5000000    0.00000       Uiso       1.00
       C88          C  0.8944400  0.4985390  0.5000000    0.00000       Uiso       1.00
       H89          H  0.9520009  0.3685680  0.2410390    0.00000       Uiso       1.00
       H90          H  0.9520009  0.3685680  0.7589610    0.00000       Uiso       1.00
       N91          N  0.8501350  0.3529300  0.5000000    0.00000       Uiso       1.00
       C92          C  0.8745760  0.3180480  0.5000000    0.00000       Uiso       1.00
       H93          H  0.8064990  0.3348920  0.5000000    0.00000       Uiso       1.00
       C94          C  0.9350940  0.3430740  0.5000000    0.00000       Uiso       1.00
       O95          O  0.8396621  0.2586560  0.5000000    0.00000       Uiso       1.00
       H96          H  0.9456890  0.3104410  0.5000000    0.00000       Uiso       1.00
       H97          H  0.3415680  0.5544020  0.5000000    0.00000       Uiso       1.00
       H98          H  0.4501780  0.6581840  0.5000000    0.00000       Uiso       1.00
       H99          H  0.5249890  0.6489160  0.5000000    0.00000       Uiso       1.00
      H100          H  0.4083880  0.4512930  0.5000000    0.00000       Uiso       1.00
      H101          H  0.5653880  0.5914490  0.5000000    0.00000       Uiso       1.00
      H102          H  0.4455980  0.7871660  0.5000000    0.00000       Uiso       1.00
      H103          H  0.3418160  0.7919930  0.5000000    0.00000       Uiso       1.00
      H104          H  0.3510840  0.8760730  0.5000000    0.00000       Uiso       1.00
      H105          H  0.5487070  0.9570950  0.5000000    0.00000       Uiso       1.00
      H106          H  0.4085510  0.9739390  0.5000000    0.00000       Uiso       1.00
      H107          H  0.2128340  0.6584319  0.5000000    0.00000       Uiso       1.00
      H108          H  0.2080070  0.5498220  0.5000000    0.00000       Uiso       1.00
      H109          H  0.1239270  0.4750110  0.5000000    0.00000       Uiso       1.00
      H110          H  0.0429050  0.5916120  0.5000000    0.00000       Uiso       1.00
      H111          H  0.0260610  0.4346120  0.5000000    0.00000       Uiso       1.00
      H112          H  0.6584320  0.4455980  0.5000000    0.00000       Uiso       1.00
      H113          H  0.5498220  0.3418160  0.5000000    0.00000       Uiso       1.00
      H114          H  0.4750110  0.3510840  0.5000000    0.00000       Uiso       1.00
      H115          H  0.5916120  0.5487070  0.5000000    0.00000       Uiso       1.00
      H116          H  0.4346120  0.4085510  0.5000000    0.00000       Uiso       1.00
      H117          H  0.5544020  0.2128340  0.5000000    0.00000       Uiso       1.00
      H118          H  0.6581840  0.2080070  0.5000000    0.00000       Uiso       1.00
      H119          H  0.6489159  0.1239270  0.5000000    0.00000       Uiso       1.00
      H120          H  0.4512930  0.0429050  0.5000000    0.00000       Uiso       1.00
      H121          H  0.5914490  0.0260610  0.5000000    0.00000       Uiso       1.00
      H122          H  0.7871660  0.3415680  0.5000000    0.00000       Uiso       1.00
      H123          H  0.7919930  0.4501780  0.5000000    0.00000       Uiso       1.00
      H124          H  0.8760730  0.5249890  0.5000000    0.00000       Uiso       1.00
      H125          H  0.9570950  0.4083880  0.5000000    0.00000       Uiso       1.00
      H126          H  0.9739389  0.5653880  0.5000000    0.00000       Uiso       1.00
      C127          C  0.6117800  0.3120300  0.5000000    0.00000       Uiso       1.00
      C128          C  0.6448870  0.3677250  0.5000000    0.00000       Uiso       1.00
      C129          C  0.6879700  0.2997500  0.5000000    0.00000       Uiso       1.00
      C130          C  0.6322750  0.2771620  0.5000000    0.00000       Uiso       1.00
      C131          C  0.7002500  0.3882200  0.5000000    0.00000       Uiso       1.00
      C132          C  0.7228380  0.3551130  0.5000000    0.00000       Uiso       1.00
      C133          C  0.3882200  0.6879700  0.5000000    0.00000       Uiso       1.00
      C134          C  0.3551130  0.6322750  0.5000000    0.00000       Uiso       1.00
      C135          C  0.3120300  0.7002501  0.5000000    0.00000       Uiso       1.00
      C136          C  0.3677250  0.7228380  0.5000000    0.00000       Uiso       1.00
      C137          C  0.2997500  0.6117800  0.5000000    0.00000       Uiso       1.00
      C138          C  0.2771620  0.6448870  0.5000000    0.00000       Uiso       1.00
      O139          O  0.5664080  0.2936510  0.5000000    0.00000       Uiso       1.00
      O140          O  0.7063490  0.2727580  0.5000000    0.00000       Uiso       1.00
      O141          O  0.7272420  0.4335920  0.5000000    0.00000       Uiso       1.00
      O142          O  0.4335920  0.7063490  0.5000000    0.00000       Uiso       1.00
      O143          O  0.2936510  0.7272420  0.5000000    0.00000       Uiso       1.00
      O144          O  0.2727580  0.5664080  0.5000000    0.00000       Uiso       1.00
