data_TpBD-NO2_2
_audit_creation_date              0000-00-00
_audit_creation_method            'LanYouShi'
_symmetry_space_group_name_H-M    'P1'
_cell_length_a                    29.2140007
_cell_length_b                    29.2140007
_cell_length_c                    3.5999999
_cell_angle_alpha                 90.0000000
_cell_angle_beta                  90.0000000
_cell_angle_gamma                 60.0000000
loop_
_atom_site_label
_atom_site_type_symbol
_atom_site_fract_x
_atom_site_fract_y
_atom_site_fract_z
_atom_site_U_iso_or_equiv
_atom_site_adp_type
_atom_site_occupancy
        N1          N  0.3853220  0.4235180  0.3888890    0.00000       Uiso       1.00
        C2          C  0.4015470  0.3718000  0.3888890    0.00000       Uiso       1.00
        C3          C  0.4181460  0.4442590  0.3888890    0.00000       Uiso       1.00
        C4          C  0.4726290  0.4123210  0.3888890    0.00000       Uiso       1.00
        C5          C  0.5038580  0.4345760  0.3888890    0.00000       Uiso       1.00
        C6          C  0.4826230  0.4890430  0.3888890    0.00000       Uiso       1.00
        C7          C  0.4277310  0.5204880  0.3888890    0.00000       Uiso       1.00
        C8          C  0.3959010  0.4985390  0.3888890    0.00000       Uiso       1.00
        H9          H  0.4434490  0.3420040  0.3888890    0.00000       Uiso       1.00
       H10          H  0.3422280  0.4463520  0.3888890    0.00000       Uiso       1.00
       H11          H  0.3524270  0.5233710  0.3888890    0.00000       Uiso       1.00
       H12          H  0.5469100  0.4081550  0.3888890    0.00000       Uiso       1.00
       H13          H  0.4090850  0.5636630  0.3888890    0.00000       Uiso       1.00
       N14          N  0.4978940  0.3528610  0.3888890    0.00000       Uiso       1.00
       O15          O  0.4814820  0.3315690  0.5947350    0.00000       Uiso       1.00
       O16          O  0.5345510  0.3265040  0.1830740    0.00000       Uiso       1.00
       N17          N  0.6146790  0.5764830  0.3888890    0.00000       Uiso       1.00
       C18          C  0.5984541  0.6282010  0.3888890    0.00000       Uiso       1.00
       C19          C  0.5818550  0.5557420  0.3888890    0.00000       Uiso       1.00
       C20          C  0.5273721  0.5876800  0.3888890    0.00000       Uiso       1.00
       C21          C  0.4961430  0.5654250  0.3888890    0.00000       Uiso       1.00
       C22          C  0.5173780  0.5109580  0.3888890    0.00000       Uiso       1.00
       C23          C  0.5722700  0.4795130  0.3888890    0.00000       Uiso       1.00
       C24          C  0.6041000  0.5014620  0.3888890    0.00000       Uiso       1.00
       H25          H  0.5565520  0.6579970  0.3888890    0.00000       Uiso       1.00
       H26          H  0.6577730  0.5536490  0.3888890    0.00000       Uiso       1.00
       H27          H  0.6475740  0.4766300  0.3888890    0.00000       Uiso       1.00
       H28          H  0.4530920  0.5918460  0.3888890    0.00000       Uiso       1.00
       H29          H  0.5909160  0.4363380  0.3888890    0.00000       Uiso       1.00
       N30          N  0.5021070  0.6471410  0.3888890    0.00000       Uiso       1.00
       O31          O  0.5185190  0.6684321  0.5947350    0.00000       Uiso       1.00
       O32          O  0.4654500  0.6734970  0.1830740    0.00000       Uiso       1.00
       N33          N  0.1911610  0.3853220  0.3888890    0.00000       Uiso       1.00
       C34          C  0.2266540  0.4015470  0.3888890    0.00000       Uiso       1.00
       C35          C  0.1375960  0.4181460  0.3888890    0.00000       Uiso       1.00
       C36          C  0.1150510  0.4726290  0.3888890    0.00000       Uiso       1.00
       C37          C  0.0615670  0.5038580  0.3888890    0.00000       Uiso       1.00
       C38          C  0.0283340  0.4826230  0.3888890    0.00000       Uiso       1.00
       C39          C  0.0517820  0.4277310  0.3888890    0.00000       Uiso       1.00
       C40          C  0.1055610  0.3959010  0.3888890    0.00000       Uiso       1.00
       H41          H  0.2145480  0.4434490  0.3888890    0.00000       Uiso       1.00
       H42          H  0.2114220  0.3422280  0.3888890    0.00000       Uiso       1.00
       H43          H  0.1242040  0.3524270  0.3888890    0.00000       Uiso       1.00
       H44          H  0.0449370  0.5469100  0.3888890    0.00000       Uiso       1.00
       H45          H  0.0272530  0.4090850  0.3888890    0.00000       Uiso       1.00
       N46          N  0.1492460  0.4978940  0.3888890    0.00000       Uiso       1.00
       O47          O  0.1869510  0.4814820  0.5947350    0.00000       Uiso       1.00
       O48          O  0.1389460  0.5345510  0.1830740    0.00000       Uiso       1.00
       N49          N  0.8088399  0.6146790  0.3888890    0.00000       Uiso       1.00
       C50          C  0.7733470  0.5984540  0.3888890    0.00000       Uiso       1.00
       C51          C  0.8624049  0.5818550  0.3888890    0.00000       Uiso       1.00
       C52          C  0.8849500  0.5273720  0.3888890    0.00000       Uiso       1.00
       C53          C  0.9384339  0.4961430  0.3888890    0.00000       Uiso       1.00
       C54          C  0.9716669  0.5173780  0.3888890    0.00000       Uiso       1.00
       C55          C  0.9482189  0.5722700  0.3888890    0.00000       Uiso       1.00
       C56          C  0.8944399  0.6041000  0.3888890    0.00000       Uiso       1.00
       H57          H  0.7854530  0.5565520  0.3888890    0.00000       Uiso       1.00
       H58          H  0.7885790  0.6577730  0.3888890    0.00000       Uiso       1.00
       H59          H  0.8757970  0.6475740  0.3888890    0.00000       Uiso       1.00
       H60          H  0.9550639  0.4530920  0.3888890    0.00000       Uiso       1.00
       H61          H  0.9727480  0.5909170  0.3888890    0.00000       Uiso       1.00
       N62          N  0.8507549  0.5021070  0.3888890    0.00000       Uiso       1.00
       O63          O  0.8130500  0.5185190  0.5947350    0.00000       Uiso       1.00
       O64          O  0.8610550  0.4654500  0.1830740    0.00000       Uiso       1.00
       N65          N  0.4235180  0.1911610  0.3888890    0.00000       Uiso       1.00
       C66          C  0.3718000  0.2266540  0.3888890    0.00000       Uiso       1.00
       C67          C  0.4442590  0.1375960  0.3888890    0.00000       Uiso       1.00
       C68          C  0.4123210  0.1150510  0.3888890    0.00000       Uiso       1.00
       C69          C  0.4345760  0.0615670  0.3888890    0.00000       Uiso       1.00
       C70          C  0.4890430  0.0283340  0.3888890    0.00000       Uiso       1.00
       C71          C  0.5204880  0.0517820  0.3888890    0.00000       Uiso       1.00
       C72          C  0.4985390  0.1055610  0.3888890    0.00000       Uiso       1.00
       H73          H  0.3420040  0.2145480  0.3888890    0.00000       Uiso       1.00
       H74          H  0.4463520  0.2114220  0.3888890    0.00000       Uiso       1.00
       H75          H  0.5233710  0.1242040  0.3888890    0.00000       Uiso       1.00
       H76          H  0.4081550  0.0449370  0.3888890    0.00000       Uiso       1.00
       H77          H  0.5636630  0.0272530  0.3888890    0.00000       Uiso       1.00
       N78          N  0.3528610  0.1492460  0.3888890    0.00000       Uiso       1.00
       O79          O  0.3315690  0.1869510  0.5947350    0.00000       Uiso       1.00
       O80          O  0.3265040  0.1389460  0.1830740    0.00000       Uiso       1.00
       N81          N  0.5764830  0.8088400  0.3888890    0.00000       Uiso       1.00
       C82          C  0.6282010  0.7733470  0.3888890    0.00000       Uiso       1.00
       C83          C  0.5557420  0.8624051  0.3888890    0.00000       Uiso       1.00
       C84          C  0.5876800  0.8849500  0.3888890    0.00000       Uiso       1.00
       C85          C  0.5654250  0.9384340  0.3888890    0.00000       Uiso       1.00
       C86          C  0.5109580  0.9716671  0.3888890    0.00000       Uiso       1.00
       C87          C  0.4795130  0.9482190  0.3888890    0.00000       Uiso       1.00
       C88          C  0.5014620  0.8944399  0.3888890    0.00000       Uiso       1.00
       H89          H  0.6579970  0.7854530  0.3888890    0.00000       Uiso       1.00
       H90          H  0.5536489  0.7885790  0.3888890    0.00000       Uiso       1.00
       H91          H  0.4766300  0.8757970  0.3888890    0.00000       Uiso       1.00
       H92          H  0.5918459  0.9550640  0.3888890    0.00000       Uiso       1.00
       H93          H  0.4363380  0.9727479  0.3888890    0.00000       Uiso       1.00
       N94          N  0.6471410  0.8507550  0.3888890    0.00000       Uiso       1.00
       O95          O  0.6684319  0.8130500  0.5947350    0.00000       Uiso       1.00
       O96          O  0.6734970  0.8610550  0.1830740    0.00000       Uiso       1.00
       C97          C  0.6879711  0.6117800  0.3888890    0.00000       Uiso       1.00
       C98          C  0.6322760  0.6448879  0.3888890    0.00000       Uiso       1.00
       O99          O  0.7063500  0.5664090  0.3888890    0.00000       Uiso       1.00
      C100          C  0.6117800  0.7002510  0.3888890    0.00000       Uiso       1.00
      C101          C  0.6448880  0.7228380  0.3888890    0.00000       Uiso       1.00
      O102          O  0.5664091  0.7272429  0.3888890    0.00000       Uiso       1.00
      C103          C  0.7002510  0.6879710  0.3888890    0.00000       Uiso       1.00
      C104          C  0.7228380  0.6322760  0.3888890    0.00000       Uiso       1.00
      O105          O  0.7272430  0.7063500  0.3888890    0.00000       Uiso       1.00
      C106          C  0.3120300  0.3882210  0.3888890    0.00000       Uiso       1.00
      C107          C  0.3677250  0.3551130  0.3888890    0.00000       Uiso       1.00
      O108          O  0.2936510  0.4335920  0.3888890    0.00000       Uiso       1.00
      C109          C  0.3882210  0.2997500  0.3888890    0.00000       Uiso       1.00
      C110          C  0.3551130  0.2771630  0.3888890    0.00000       Uiso       1.00
      O111          O  0.4335920  0.2727580  0.3888890    0.00000       Uiso       1.00
      C112          C  0.2997500  0.3120300  0.3888890    0.00000       Uiso       1.00
      C113          C  0.2771630  0.3677250  0.3888890    0.00000       Uiso       1.00
      O114          O  0.2727580  0.2936510  0.3888890    0.00000       Uiso       1.00
