data_TpBD-OMe2-FF
_audit_creation_date              0000-00-00
_audit_creation_method            'LanYouShi'
_symmetry_space_group_name_H-M    'P1'
_cell_length_a                    30.4239998
_cell_length_b                    30.4239998
_cell_length_c                    3.9679999
_cell_angle_alpha                 90.0000000
_cell_angle_beta                  90.0000000
_cell_angle_gamma                 120.0000000
loop_
_atom_site_label
_atom_site_type_symbol
_atom_site_fract_x
_atom_site_fract_y
_atom_site_fract_z
_atom_site_U_iso_or_equiv
_atom_site_adp_type
_atom_site_occupancy
        H1          H  0.6795140  0.5906720 -0.2209910    0.00000       Uiso       1.00
        H2          H  0.4093270  0.0888420 -0.2209910    0.00000       Uiso       1.00
        H3          H  0.9111570  0.3204850 -0.2209910    0.00000       Uiso       1.00
        H4          H  0.3204850  0.4093270 -0.2209910    0.00000       Uiso       1.00
        H5          H  0.5906720  0.9111570 -0.2209910    0.00000       Uiso       1.00
        H6          H  0.0888420  0.6795140 -0.2209910    0.00000       Uiso       1.00
        H7          H  0.3204850  0.4093270  0.2209910    0.00000       Uiso       1.00
        H8          H  0.5906720  0.9111570  0.2209910    0.00000       Uiso       1.00
        H9          H  0.0888420  0.6795140  0.2209910    0.00000       Uiso       1.00
       H10          H  0.6795140  0.5906720  0.2209910    0.00000       Uiso       1.00
       H11          H  0.4093270  0.0888420  0.2209910    0.00000       Uiso       1.00
       H12          H  0.9111570  0.3204850  0.2209910    0.00000       Uiso       1.00
       H13          H  0.4960330  0.6287830  0.0000000    0.00000       Uiso       1.00
       H14          H  0.5448030  0.5898920  0.0000000    0.00000       Uiso       1.00
       H15          H  0.4113200  0.4463080  0.0000000    0.00000       Uiso       1.00
       O16          O  0.6512770  0.5195430  0.0000000    0.00000       Uiso       1.00
       C17          C  0.6853460  0.5732510  0.0000000    0.00000       Uiso       1.00
       H18          H  0.7243090  0.5805550  0.0000000    0.00000       Uiso       1.00
       O19          O  0.2984830  0.5673800  0.0000000    0.00000       Uiso       1.00
       N20          N  0.3932840  0.5823750  0.0000000    0.00000       Uiso       1.00
       C21          C  0.3153380  0.6143820  0.0000000    0.00000       Uiso       1.00
       C22          C  0.4050130  0.6316930  0.0000000    0.00000       Uiso       1.00
       C23          C  0.4239690  0.5616260  0.0000000    0.00000       Uiso       1.00
       C24          C  0.4774340  0.5900920  0.0000000    0.00000       Uiso       1.00
       C25          C  0.5066280  0.5659870  0.0000000    0.00000       Uiso       1.00
       C26          C  0.4849150  0.5122290  0.0000000    0.00000       Uiso       1.00
       C27          C  0.4308120  0.4846890  0.0000000    0.00000       Uiso       1.00
       C28          C  0.4006870  0.5080190  0.0000000    0.00000       Uiso       1.00
       C29          C  0.3686250  0.6481460  0.0000000    0.00000       Uiso       1.00
       H30          H  0.3712170  0.8672490  0.0000000    0.00000       Uiso       1.00
       H31          H  0.4101070  0.9549100  0.0000000    0.00000       Uiso       1.00
       H32          H  0.5536910  0.9650120  0.0000000    0.00000       Uiso       1.00
       O33          O  0.4804560  0.1317340  0.0000000    0.00000       Uiso       1.00
       C34          C  0.4267480  0.1120950  0.0000000    0.00000       Uiso       1.00
       H35          H  0.4194440  0.1437540  0.0000000    0.00000       Uiso       1.00
       O36          O  0.4326190  0.7311020  0.0000000    0.00000       Uiso       1.00
       N37          N  0.4176240  0.8109090  0.0000000    0.00000       Uiso       1.00
       C38          C  0.3856170  0.7009550  0.0000000    0.00000       Uiso       1.00
       C39          C  0.3683060  0.7733190  0.0000000    0.00000       Uiso       1.00
       C40          C  0.4383730  0.8623430  0.0000000    0.00000       Uiso       1.00
       C41          C  0.4099080  0.8873420  0.0000000    0.00000       Uiso       1.00
       C42          C  0.4340130  0.9406410  0.0000000    0.00000       Uiso       1.00
       C43          C  0.4877700  0.9726850  0.0000000    0.00000       Uiso       1.00
       C44          C  0.5153110  0.9461230  0.0000000    0.00000       Uiso       1.00
       C45          C  0.4919800  0.8926660  0.0000000    0.00000       Uiso       1.00
       C46          C  0.3518530  0.7204780  0.0000000    0.00000       Uiso       1.00
       H47          H  0.1327500  0.5039660  0.0000000    0.00000       Uiso       1.00
       H48          H  0.0450890  0.4551960  0.0000000    0.00000       Uiso       1.00
       H49          H  0.0349870  0.5886790  0.0000000    0.00000       Uiso       1.00
       O50          O  0.8682650  0.3487220  0.0000000    0.00000       Uiso       1.00
       C51          C  0.8879040  0.3146530  0.0000000    0.00000       Uiso       1.00
       H52          H  0.8562450  0.2756900  0.0000000    0.00000       Uiso       1.00
       O53          O  0.2688970  0.7015160  0.0000000    0.00000       Uiso       1.00
       N54          N  0.1890900  0.6067150  0.0000000    0.00000       Uiso       1.00
       C55          C  0.2990440  0.6846610  0.0000000    0.00000       Uiso       1.00
       C56          C  0.2266800  0.5949860  0.0000000    0.00000       Uiso       1.00
       C57          C  0.1376560  0.5760300  0.0000000    0.00000       Uiso       1.00
       C58          C  0.1126570  0.5225650  0.0000000    0.00000       Uiso       1.00
       C59          C  0.0593590  0.4933710  0.0000000    0.00000       Uiso       1.00
       C60          C  0.0273140  0.5150840  0.0000000    0.00000       Uiso       1.00
       C61          C  0.0538770  0.5691870  0.0000000    0.00000       Uiso       1.00
       C62          C  0.1073330  0.5993130  0.0000000    0.00000       Uiso       1.00
       C63          C  0.2795210  0.6313740  0.0000000    0.00000       Uiso       1.00
       H64          H  0.5039660  0.3712170  0.0000000    0.00000       Uiso       1.00
       H65          H  0.4551960  0.4101070  0.0000000    0.00000       Uiso       1.00
       H66          H  0.5886790  0.5536910  0.0000000    0.00000       Uiso       1.00
       O67          O  0.3487220  0.4804560  0.0000000    0.00000       Uiso       1.00
       C68          C  0.3146530  0.4267480  0.0000000    0.00000       Uiso       1.00
       H69          H  0.2756900  0.4194440  0.0000000    0.00000       Uiso       1.00
       O70          O  0.7015160  0.4326190  0.0000000    0.00000       Uiso       1.00
       N71          N  0.6067150  0.4176240  0.0000000    0.00000       Uiso       1.00
       C72          C  0.6846610  0.3856170  0.0000000    0.00000       Uiso       1.00
       C73          C  0.5949860  0.3683060  0.0000000    0.00000       Uiso       1.00
       C74          C  0.5760300  0.4383730  0.0000000    0.00000       Uiso       1.00
       C75          C  0.5225650  0.4099080  0.0000000    0.00000       Uiso       1.00
       C76          C  0.4933710  0.4340130  0.0000000    0.00000       Uiso       1.00
       C77          C  0.5150840  0.4877700  0.0000000    0.00000       Uiso       1.00
       C78          C  0.5691870  0.5153100  0.0000000    0.00000       Uiso       1.00
       C79          C  0.5993130  0.4919800  0.0000000    0.00000       Uiso       1.00
       C80          C  0.6313740  0.3518530  0.0000000    0.00000       Uiso       1.00
       H81          H  0.6287830  0.1327500  0.0000000    0.00000       Uiso       1.00
       H82          H  0.5898920  0.0450890  0.0000000    0.00000       Uiso       1.00
       H83          H  0.4463080  0.0349870  0.0000000    0.00000       Uiso       1.00
       O84          O  0.5195430  0.8682650  0.0000000    0.00000       Uiso       1.00
       C85          C  0.5732510  0.8879039  0.0000000    0.00000       Uiso       1.00
       H86          H  0.5805550  0.8562450  0.0000000    0.00000       Uiso       1.00
       O87          O  0.5673800  0.2688970  0.0000000    0.00000       Uiso       1.00
       N88          N  0.5823750  0.1890900  0.0000000    0.00000       Uiso       1.00
       C89          C  0.6143820  0.2990440  0.0000000    0.00000       Uiso       1.00
       C90          C  0.6316930  0.2266800  0.0000000    0.00000       Uiso       1.00
       C91          C  0.5616260  0.1376560  0.0000000    0.00000       Uiso       1.00
       C92          C  0.5900920  0.1126570  0.0000000    0.00000       Uiso       1.00
       C93          C  0.5659870  0.0593590  0.0000000    0.00000       Uiso       1.00
       C94          C  0.5122290  0.0273140  0.0000000    0.00000       Uiso       1.00
       C95          C  0.4846890  0.0538770  0.0000000    0.00000       Uiso       1.00
       C96          C  0.5080190  0.1073330  0.0000000    0.00000       Uiso       1.00
       C97          C  0.6481460  0.2795210  0.0000000    0.00000       Uiso       1.00
       H98          H  0.8672490  0.4960330  0.0000000    0.00000       Uiso       1.00
       H99          H  0.9549100  0.5448030  0.0000000    0.00000       Uiso       1.00
      H100          H  0.9650120  0.4113200  0.0000000    0.00000       Uiso       1.00
      O101          O  0.1317340  0.6512770  0.0000000    0.00000       Uiso       1.00
      C102          C  0.1120950  0.6853460  0.0000000    0.00000       Uiso       1.00
      H103          H  0.1437540  0.7243090  0.0000000    0.00000       Uiso       1.00
      O104          O  0.7311019  0.2984830  0.0000000    0.00000       Uiso       1.00
      N105          N  0.8109089  0.3932840  0.0000000    0.00000       Uiso       1.00
      C106          C  0.7009550  0.3153380  0.0000000    0.00000       Uiso       1.00
      C107          C  0.7733190  0.4050130  0.0000000    0.00000       Uiso       1.00
      C108          C  0.8623430  0.4239690  0.0000000    0.00000       Uiso       1.00
      C109          C  0.8873420  0.4774340  0.0000000    0.00000       Uiso       1.00
      C110          C  0.9406400  0.5066280  0.0000000    0.00000       Uiso       1.00
      C111          C  0.9726850  0.4849150  0.0000000    0.00000       Uiso       1.00
      C112          C  0.9461230  0.4308120  0.0000000    0.00000       Uiso       1.00
      C113          C  0.8926660  0.4006870  0.0000000    0.00000       Uiso       1.00
      C114          C  0.7204780  0.3686250  0.0000000    0.00000       Uiso       1.00
      H115          H  0.3569520  0.5573340  0.0000000    0.00000       Uiso       1.00
      H116          H  0.4426050  0.6589480  0.0000000    0.00000       Uiso       1.00
      H117          H  0.4426650  0.7996170  0.0000000    0.00000       Uiso       1.00
      H118          H  0.3410510  0.7836560  0.0000000    0.00000       Uiso       1.00
      H119          H  0.2003820  0.6430470  0.0000000    0.00000       Uiso       1.00
      H120          H  0.2163430  0.5573940  0.0000000    0.00000       Uiso       1.00
      H121          H  0.6430470  0.4426650  0.0000000    0.00000       Uiso       1.00
      H122          H  0.5573940  0.3410510  0.0000000    0.00000       Uiso       1.00
      H123          H  0.5573340  0.2003820  0.0000000    0.00000       Uiso       1.00
      H124          H  0.6589480  0.2163430  0.0000000    0.00000       Uiso       1.00
      H125          H  0.7996180  0.3569520  0.0000000    0.00000       Uiso       1.00
      H126          H  0.7836560  0.4426050  0.0000000    0.00000       Uiso       1.00
