data_TpBPy
_audit_creation_date              0000-00-00
_audit_creation_method            'LanYouShi'
_symmetry_space_group_name_H-M    'P1'
_cell_length_a                    30.0438004
_cell_length_b                    30.0438004
_cell_length_c                    3.4877000
_cell_angle_alpha                 90.0000000
_cell_angle_beta                  90.0000000
_cell_angle_gamma                 120.0000000
loop_
_atom_site_label
_atom_site_type_symbol
_atom_site_fract_x
_atom_site_fract_y
_atom_site_fract_z
_atom_site_U_iso_or_equiv
_atom_site_adp_type
_atom_site_occupancy
        O1          O  0.3065070  0.5677920  0.0000000    0.00000       Uiso       1.00
        O2          O  0.4322080  0.7387150  0.0000000    0.00000       Uiso       1.00
        O3          O  0.2612840  0.6934920  0.0000000    0.00000       Uiso       1.00
        N4          N  0.4062490  0.5921780  0.0000000    0.00000       Uiso       1.00
        N5          N  0.4078210  0.8140700  0.0000000    0.00000       Uiso       1.00
        N6          N  0.1859290  0.5937500  0.0000000    0.00000       Uiso       1.00
        C7          C  0.3194690  0.6145250  0.0000000    0.00000       Uiso       1.00
        C8          C  0.3854750  0.7049440  0.0000000    0.00000       Uiso       1.00
        C9          C  0.2950560  0.6805300  0.0000000    0.00000       Uiso       1.00
       C10          C  0.4128640  0.6402740  0.0000000    0.00000       Uiso       1.00
       C11          C  0.3597260  0.7725890  0.0000000    0.00000       Uiso       1.00
       C12          C  0.2274100  0.5871360  0.0000000    0.00000       Uiso       1.00
       C13          C  0.4422700  0.5774370  0.0000000    0.00000       Uiso       1.00
       C14          C  0.4225620  0.8648320  0.0000000    0.00000       Uiso       1.00
       C15          C  0.1351670  0.5577290  0.0000000    0.00000       Uiso       1.00
       C16          C  0.4962000  0.6104000  0.0000000    0.00000       Uiso       1.00
       C17          C  0.3896000  0.8858000  0.0000000    0.00000       Uiso       1.00
       C18          C  0.1141990  0.5037990  0.0000000    0.00000       Uiso       1.00
       C19          C  0.5296170  0.5902860  0.0000000    0.00000       Uiso       1.00
       C20          C  0.4097130  0.9393300  0.0000000    0.00000       Uiso       1.00
       C21          C  0.0606700  0.4703830  0.0000000    0.00000       Uiso       1.00
       C22          C  0.5095120  0.5364240  0.0000000    0.00000       Uiso       1.00
       C23          C  0.4635750  0.9730880  0.0000000    0.00000       Uiso       1.00
       C24          C  0.0269120  0.4904870  0.0000000    0.00000       Uiso       1.00
       N25          N  0.4573550  0.5062130  0.0000000    0.00000       Uiso       1.00
       N26          N  0.4937860  0.9511420  0.0000000    0.00000       Uiso       1.00
       N27          N  0.0488580  0.5426440  0.0000000    0.00000       Uiso       1.00
       C28          C  0.4239860  0.5241550  0.0000000    0.00000       Uiso       1.00
       C29          C  0.4758440  0.8998300  0.0000000    0.00000       Uiso       1.00
       C30          C  0.1001700  0.5760140  0.0000000    0.00000       Uiso       1.00
       C31          C  0.3726100  0.6524240  0.0000000    0.00000       Uiso       1.00
       C32          C  0.3475760  0.7201859  0.0000000    0.00000       Uiso       1.00
       C33          C  0.2798140  0.6273900  0.0000000    0.00000       Uiso       1.00
       H34          H  0.4498690  0.6699320  0.0000000    0.00000       Uiso       1.00
       H35          H  0.3300670  0.7799360  0.0000000    0.00000       Uiso       1.00
       H36          H  0.2200630  0.5501310  0.0000000    0.00000       Uiso       1.00
       H37          H  0.5120520  0.6493780  0.0000000    0.00000       Uiso       1.00
       H38          H  0.3506220  0.8626741  0.0000000    0.00000       Uiso       1.00
       H39          H  0.1373250  0.4879470  0.0000000    0.00000       Uiso       1.00
       H40          H  0.3711630  0.5645350  0.0000000    0.00000       Uiso       1.00
       H41          H  0.4354650  0.8066270  0.0000000    0.00000       Uiso       1.00
       H42          H  0.1933720  0.6288370  0.0000000    0.00000       Uiso       1.00
       H43          H  0.3854500  0.4982310  0.0000000    0.00000       Uiso       1.00
       H44          H  0.5017680  0.8872180  0.0000000    0.00000       Uiso       1.00
       H45          H  0.1127810  0.6145490  0.0000000    0.00000       Uiso       1.00
       H46          H  0.5682040  0.6155600  0.0000000    0.00000       Uiso       1.00
       H47          H  0.3844400  0.9526430  0.0000000    0.00000       Uiso       1.00
       H48          H  0.0473560  0.4317960  0.0000000    0.00000       Uiso       1.00
       O49          O  0.7120170  0.4353870  0.0000000    0.00000       Uiso       1.00
       O50          O  0.5646120  0.2766300  0.0000000    0.00000       Uiso       1.00
       O51          O  0.7233700  0.2879830  0.0000000    0.00000       Uiso       1.00
       N52          N  0.6198220  0.4309520  0.0000000    0.00000       Uiso       1.00
       N53          N  0.5690480  0.1888700  0.0000000    0.00000       Uiso       1.00
       N54          N  0.8111290  0.3801770  0.0000000    0.00000       Uiso       1.00
       C55          C  0.6903370  0.3872140  0.0000000    0.00000       Uiso       1.00
       C56          C  0.6127850  0.3031220  0.0000000    0.00000       Uiso       1.00
       C57          C  0.6968770  0.3096630  0.0000000    0.00000       Uiso       1.00
       C58          C  0.6033620  0.3798780  0.0000000    0.00000       Uiso       1.00
       C59          C  0.6201220  0.2234840  0.0000000    0.00000       Uiso       1.00
       C60          C  0.7765150  0.3966370  0.0000000    0.00000       Uiso       1.00
       C61          C  0.5917260  0.4550330  0.0000000    0.00000       Uiso       1.00
       C62          C  0.5449670  0.1366930  0.0000000    0.00000       Uiso       1.00
       C63          C  0.8633060  0.4082730  0.0000000    0.00000       Uiso       1.00
       C64          C  0.5375070  0.4308690  0.0000000    0.00000       Uiso       1.00
       C65          C  0.5691300  0.1066380  0.0000000    0.00000       Uiso       1.00
       C66          C  0.8933620  0.4624930  0.0000000    0.00000       Uiso       1.00
       N67          N  0.5142310  0.4595890  0.0000000    0.00000       Uiso       1.00
       N68          N  0.5404100  0.0546410  0.0000000    0.00000       Uiso       1.00
       N69          N  0.9453580  0.4857690  0.0000000    0.00000       Uiso       1.00
       C70          C  0.5393620  0.5119540  0.0000000    0.00000       Uiso       1.00
       C71          C  0.4880450  0.0274070  0.0000000    0.00000       Uiso       1.00
       C72          C  0.9725920  0.4606380  0.0000000    0.00000       Uiso       1.00
       C73          C  0.5937650  0.5376830  0.0000000    0.00000       Uiso       1.00
       C74          C  0.4623160  0.0560820  0.0000000    0.00000       Uiso       1.00
       C75          C  0.9439180  0.4062350  0.0000000    0.00000       Uiso       1.00
       C76          C  0.6193420  0.5092270  0.0000000    0.00000       Uiso       1.00
       C77          C  0.4907730  0.1101150  0.0000000    0.00000       Uiso       1.00
       C78          C  0.8898840  0.3806580  0.0000000    0.00000       Uiso       1.00
       C79          C  0.6356710  0.3576390  0.0000000    0.00000       Uiso       1.00
       C80          C  0.6423610  0.2780330  0.0000000    0.00000       Uiso       1.00
       C81          C  0.7219670  0.3643280  0.0000000    0.00000       Uiso       1.00
       H82          H  0.5645620  0.3557190  0.0000000    0.00000       Uiso       1.00
       H83          H  0.6442800  0.2088430  0.0000000    0.00000       Uiso       1.00
       H84          H  0.7911570  0.4354380  0.0000000    0.00000       Uiso       1.00
       H85          H  0.5146980  0.3919070  0.0000000    0.00000       Uiso       1.00
       H86          H  0.6080930  0.1227910  0.0000000    0.00000       Uiso       1.00
       H87          H  0.8772090  0.4853020  0.0000000    0.00000       Uiso       1.00
       H88          H  0.6564970  0.4533580  0.0000000    0.00000       Uiso       1.00
       H89          H  0.5466420  0.2031390  0.0000000    0.00000       Uiso       1.00
       H90          H  0.7968600  0.3435020  0.0000000    0.00000       Uiso       1.00
       H91          H  0.6586940  0.5286260  0.0000000    0.00000       Uiso       1.00
       H92          H  0.4713740  0.1300680  0.0000000    0.00000       Uiso       1.00
       H93          H  0.8699310  0.3413050  0.0000000    0.00000       Uiso       1.00
       H94          H  0.6155180  0.5767970  0.0000000    0.00000       Uiso       1.00
       H95          H  0.4232020  0.0387210  0.0000000    0.00000       Uiso       1.00
       H96          H  0.9612780  0.3844810  0.0000000    0.00000       Uiso       1.00
