data_TPB-TP-COF
_audit_creation_date              0000-00-00
_audit_creation_method            'LanYouShi'
_symmetry_space_group_name_H-M    'P1'
_cell_length_a                    37.4664993
_cell_length_b                    37.4664993
_cell_length_c                    3.6333001
_cell_angle_alpha                 90.0000000
_cell_angle_beta                  90.0000000
_cell_angle_gamma                 120.0000000
loop_
_atom_site_label
_atom_site_type_symbol
_atom_site_fract_x
_atom_site_fract_y
_atom_site_fract_z
_atom_site_U_iso_or_equiv
_atom_site_adp_type
_atom_site_occupancy
        C1          C  0.8870840  0.4736400  0.5000000    0.00000       Uiso       1.00
        C2          C  0.5263600  0.4134440  0.5000000    0.00000       Uiso       1.00
        C3          C  0.5865560  0.1129160  0.5000000    0.00000       Uiso       1.00
        C4          C  0.1129160  0.5263600  0.5000000    0.00000       Uiso       1.00
        C5          C  0.4736400  0.5865560  0.5000000    0.00000       Uiso       1.00
        C6          C  0.4134440  0.8870840  0.5000000    0.00000       Uiso       1.00
        N7          N  0.9145750  0.4602700  0.5000000    0.00000       Uiso       1.00
        N8          N  0.5397300  0.4543050  0.5000000    0.00000       Uiso       1.00
        N9          N  0.5456960  0.0854250  0.5000000    0.00000       Uiso       1.00
       N10          N  0.0854250  0.5397300  0.5000000    0.00000       Uiso       1.00
       N11          N  0.4602700  0.5456960  0.5000000    0.00000       Uiso       1.00
       N12          N  0.4543050  0.9145750  0.5000000    0.00000       Uiso       1.00
       C13          C  0.9562870  0.4810300  0.5000000    0.00000       Uiso       1.00
       C14          C  0.9755320  0.4569140  0.5000000    0.00000       Uiso       1.00
       H15          H  0.8974610  0.5045940  0.5000000    0.00000       Uiso       1.00
       H16          H  0.9581540  0.4254120  0.5000000    0.00000       Uiso       1.00
       C17          C  0.5189700  0.4752570  0.5000000    0.00000       Uiso       1.00
       C18          C  0.5430860  0.5186180  0.5000000    0.00000       Uiso       1.00
       C19          C  0.5244370  0.5431730  0.5000000    0.00000       Uiso       1.00
       H20          H  0.4954060  0.3928660  0.5000000    0.00000       Uiso       1.00
       H21          H  0.5745880  0.5327420  0.5000000    0.00000       Uiso       1.00
       H22          H  0.5429450  0.5744550  0.5000000    0.00000       Uiso       1.00
       C23          C  0.5247430  0.0437130  0.5000000    0.00000       Uiso       1.00
       C24          C  0.4813820  0.0244680  0.5000000    0.00000       Uiso       1.00
       H25          H  0.6071340  0.1025390  0.5000000    0.00000       Uiso       1.00
       H26          H  0.4672580  0.0418460  0.5000000    0.00000       Uiso       1.00
       C27          C  0.0437130  0.5189700  0.5000000    0.00000       Uiso       1.00
       C28          C  0.0244680  0.5430860  0.5000000    0.00000       Uiso       1.00
       H29          H  0.1025390  0.4954060  0.5000000    0.00000       Uiso       1.00
       H30          H  0.0418460  0.5745880  0.5000000    0.00000       Uiso       1.00
       C31          C  0.4810300  0.5247430  0.5000000    0.00000       Uiso       1.00
       C32          C  0.4569140  0.4813820  0.5000000    0.00000       Uiso       1.00
       C33          C  0.4755630  0.4568270  0.5000000    0.00000       Uiso       1.00
       H34          H  0.5045940  0.6071340  0.5000000    0.00000       Uiso       1.00
       H35          H  0.4254120  0.4672580  0.5000000    0.00000       Uiso       1.00
       H36          H  0.4570550  0.4255450  0.5000000    0.00000       Uiso       1.00
       C37          C  0.4752570  0.9562870  0.5000000    0.00000       Uiso       1.00
       C38          C  0.5186180  0.9755320  0.5000000    0.00000       Uiso       1.00
       H39          H  0.3928660  0.8974610  0.5000000    0.00000       Uiso       1.00
       H40          H  0.5327420  0.9581540  0.5000000    0.00000       Uiso       1.00
       C41          C  0.0187360  0.4755630  0.5000000    0.00000       Uiso       1.00
       H42          H  0.0315100  0.4570550  0.5000000    0.00000       Uiso       1.00
       C43          C  0.4568270  0.9812640  0.5000000    0.00000       Uiso       1.00
       H44          H  0.4255450  0.9684900  0.5000000    0.00000       Uiso       1.00
       C45          C  0.9812640  0.5244370  0.5000000    0.00000       Uiso       1.00
       H46          H  0.9684900  0.5429450  0.5000000    0.00000       Uiso       1.00
       C47          C  0.5431730  0.0187360  0.5000000    0.00000       Uiso       1.00
       H48          H  0.5744550  0.0315100  0.5000000    0.00000       Uiso       1.00
       C49          C  0.1724140  0.5972170  0.5000000    0.00000       Uiso       1.00
       C50          C  0.2152990  0.6241630  0.5000000    0.00000       Uiso       1.00
       C51          C  0.4027830  0.5751970  0.5000000    0.00000       Uiso       1.00
       C52          C  0.3758370  0.5911360  0.5000000    0.00000       Uiso       1.00
       C53          C  0.4248030  0.8275860  0.5000000    0.00000       Uiso       1.00
       C54          C  0.4088640  0.7847010  0.5000000    0.00000       Uiso       1.00
       C55          C  0.8275860  0.4027830  0.5000000    0.00000       Uiso       1.00
       C56          C  0.7847010  0.3758370  0.5000000    0.00000       Uiso       1.00
       C57          C  0.5972170  0.4248030  0.5000000    0.00000       Uiso       1.00
       C58          C  0.6241630  0.4088640  0.5000000    0.00000       Uiso       1.00
       C59          C  0.5751970  0.1724140  0.5000000    0.00000       Uiso       1.00
       C60          C  0.5911360  0.2152990  0.5000000    0.00000       Uiso       1.00
       H61          H  0.1535000  0.6095780  0.5000000    0.00000       Uiso       1.00
       H62          H  0.2238470  0.6544470  0.5000000    0.00000       Uiso       1.00
       H63          H  0.3904220  0.5439220  0.5000000    0.00000       Uiso       1.00
       H64          H  0.3455530  0.5694010  0.5000000    0.00000       Uiso       1.00
       H65          H  0.4560780  0.8465000  0.5000000    0.00000       Uiso       1.00
       H66          H  0.4305990  0.7761530  0.5000000    0.00000       Uiso       1.00
       H67          H  0.8465000  0.3904220  0.5000000    0.00000       Uiso       1.00
       H68          H  0.7761530  0.3455530  0.5000000    0.00000       Uiso       1.00
       H69          H  0.6095780  0.4560780  0.5000000    0.00000       Uiso       1.00
       H70          H  0.6544470  0.4305990  0.5000000    0.00000       Uiso       1.00
       H71          H  0.5439220  0.1535000  0.5000000    0.00000       Uiso       1.00
       H72          H  0.5694010  0.2238470  0.5000000    0.00000       Uiso       1.00
       C73          C  0.3557200  0.8163890  0.5000000    0.00000       Uiso       1.00
       C74          C  0.3401700  0.7735400  0.5000000    0.00000       Uiso       1.00
       C75          C  0.1836110  0.5393310  0.5000000    0.00000       Uiso       1.00
       C76          C  0.2264600  0.5666300  0.5000000    0.00000       Uiso       1.00
       C77          C  0.4606690  0.6442800  0.5000000    0.00000       Uiso       1.00
       C78          C  0.4333700  0.6598300  0.5000000    0.00000       Uiso       1.00
       C79          C  0.6442800  0.1836110  0.5000000    0.00000       Uiso       1.00
       C80          C  0.6598300  0.2264600  0.5000000    0.00000       Uiso       1.00
       C81          C  0.8163890  0.4606690  0.5000000    0.00000       Uiso       1.00
       C82          C  0.7735400  0.4333700  0.5000000    0.00000       Uiso       1.00
       C83          C  0.5393310  0.3557200  0.5000000    0.00000       Uiso       1.00
       C84          C  0.5666300  0.3401700  0.5000000    0.00000       Uiso       1.00
       H85          H  0.3353650  0.8270560  0.5000000    0.00000       Uiso       1.00
       H86          H  0.3089960  0.7563550  0.5000000    0.00000       Uiso       1.00
       H87          H  0.1729440  0.5083100  0.5000000    0.00000       Uiso       1.00
       H88          H  0.2436450  0.5526410  0.5000000    0.00000       Uiso       1.00
       H89          H  0.4916900  0.6646350  0.5000000    0.00000       Uiso       1.00
       H90          H  0.4473590  0.6910040  0.5000000    0.00000       Uiso       1.00
       H91          H  0.6646350  0.1729440  0.5000000    0.00000       Uiso       1.00
       H92          H  0.6910040  0.2436450  0.5000000    0.00000       Uiso       1.00
       H93          H  0.8270560  0.4916900  0.5000000    0.00000       Uiso       1.00
       H94          H  0.7563550  0.4473590  0.5000000    0.00000       Uiso       1.00
       H95          H  0.5083100  0.3353650  0.5000000    0.00000       Uiso       1.00
       H96          H  0.5526410  0.3089960  0.5000000    0.00000       Uiso       1.00
       C97          C  0.3496460  0.7112140  0.5000000    0.00000       Uiso       1.00
       C98          C  0.3984420  0.8442970  0.5000000    0.00000       Uiso       1.00
       C99          C  0.3657840  0.7553210  0.5000000    0.00000       Uiso       1.00
      C100          C  0.3752130  0.6932050  0.5000000    0.00000       Uiso       1.00
      C101          C  0.2887860  0.6384320  0.5000000    0.00000       Uiso       1.00
      C102          C  0.1557030  0.5541450  0.5000000    0.00000       Uiso       1.00
      C103          C  0.2446790  0.6104630  0.5000000    0.00000       Uiso       1.00
      C104          C  0.3067950  0.6820070  0.5000000    0.00000       Uiso       1.00
      C105          C  0.3615680  0.6503540  0.5000000    0.00000       Uiso       1.00
      C106          C  0.4458550  0.6015580  0.5000000    0.00000       Uiso       1.00
      C107          C  0.3895370  0.6342160  0.5000000    0.00000       Uiso       1.00
      C108          C  0.3179930  0.6247870  0.5000000    0.00000       Uiso       1.00
      C109          C  0.6503540  0.2887860  0.5000000    0.00000       Uiso       1.00
      C110          C  0.6015580  0.1557030  0.5000000    0.00000       Uiso       1.00
      C111          C  0.6342160  0.2446790  0.5000000    0.00000       Uiso       1.00
      C112          C  0.6247870  0.3067950  0.5000000    0.00000       Uiso       1.00
      C113          C  0.7112140  0.3615680  0.5000000    0.00000       Uiso       1.00
      C114          C  0.8442970  0.4458550  0.5000000    0.00000       Uiso       1.00
      C115          C  0.7553210  0.3895370  0.5000000    0.00000       Uiso       1.00
      C116          C  0.6932050  0.3179930  0.5000000    0.00000       Uiso       1.00
      C117          C  0.6384320  0.3496460  0.5000000    0.00000       Uiso       1.00
      C118          C  0.5541450  0.3984420  0.5000000    0.00000       Uiso       1.00
      C119          C  0.6104630  0.3657840  0.5000000    0.00000       Uiso       1.00
      C120          C  0.6820070  0.3752130  0.5000000    0.00000       Uiso       1.00
      H121          H  0.2875370  0.6931710  0.5000000    0.00000       Uiso       1.00
      H122          H  0.3068290  0.5943660  0.5000000    0.00000       Uiso       1.00
      H123          H  0.4056340  0.7124630  0.5000000    0.00000       Uiso       1.00
      H124          H  0.7124630  0.3068290  0.5000000    0.00000       Uiso       1.00
      H125          H  0.6931710  0.4056340  0.5000000    0.00000       Uiso       1.00
      H126          H  0.5943660  0.2875370  0.5000000    0.00000       Uiso       1.00
