data_TP-COF
_audit_creation_date              0000-00-00
_audit_creation_method            'LanYouShi'
_symmetry_space_group_name_H-M    'P1'
_cell_length_a                    37.5411987
_cell_length_b                    37.5411987
_cell_length_c                    3.3784001
_cell_angle_alpha                 90.0000000
_cell_angle_beta                  90.0000000
_cell_angle_gamma                 120.0000000
loop_
_atom_site_label
_atom_site_type_symbol
_atom_site_fract_x
_atom_site_fract_y
_atom_site_fract_z
_atom_site_U_iso_or_equiv
_atom_site_adp_type
_atom_site_occupancy
        C1          C  0.2945700  0.6281400  0.5000000    0.00000       Uiso       1.00
        C2          C  0.3338800  0.5916700  0.5000000    0.00000       Uiso       1.00
        C3          C  0.3709700  0.5916700  0.5000000    0.00000       Uiso       1.00
        O4          O  0.3789900  0.5596400  0.5000000    0.00000       Uiso       1.00
        C5          C  0.4242800  0.5112600  0.5000000    0.00000       Uiso       1.00
        C6          C  0.4451300  0.4890200  0.5000000    0.00000       Uiso       1.00
        C7          C  0.4239000  0.4447700  0.5000000    0.00000       Uiso       1.00
        C8          C  0.3718600  0.6664300  0.5000000    0.00000       Uiso       1.00
        C9          C  0.4083300  0.7422100  0.5000000    0.00000       Uiso       1.00
       C10          C  0.4083300  0.7793000  0.5000000    0.00000       Uiso       1.00
       O11          O  0.4403600  0.8193500  0.5000000    0.00000       Uiso       1.00
       C12          C  0.4887400  0.9130200  0.5000000    0.00000       Uiso       1.00
       C13          C  0.5109800  0.9561100  0.5000000    0.00000       Uiso       1.00
       C14          C  0.5552300  0.9791300  0.5000000    0.00000       Uiso       1.00
       C15          C  0.3335700  0.7054300  0.5000000    0.00000       Uiso       1.00
       C16          C  0.2577900  0.6661200  0.5000000    0.00000       Uiso       1.00
       C17          C  0.2207000  0.6290300  0.5000000    0.00000       Uiso       1.00
       O18          O  0.1806500  0.6210100  0.5000000    0.00000       Uiso       1.00
       C19          C  0.0869800  0.5757200  0.5000000    0.00000       Uiso       1.00
       C20          C  0.0438900  0.5548700  0.5000000    0.00000       Uiso       1.00
       C21          C  0.0208700  0.5761000  0.5000000    0.00000       Uiso       1.00
       C22          C  0.7054300  0.3718600  0.5000000    0.00000       Uiso       1.00
       C23          C  0.6661200  0.4083300  0.5000000    0.00000       Uiso       1.00
       C24          C  0.6290300  0.4083300  0.5000000    0.00000       Uiso       1.00
       O25          O  0.6210100  0.4403600  0.5000000    0.00000       Uiso       1.00
       C26          C  0.5757200  0.4887400  0.5000000    0.00000       Uiso       1.00
       C27          C  0.5548700  0.5109800  0.5000000    0.00000       Uiso       1.00
       C28          C  0.5761000  0.5552300  0.5000000    0.00000       Uiso       1.00
       C29          C  0.6281400  0.3335700  0.5000000    0.00000       Uiso       1.00
       C30          C  0.5916700  0.2577900  0.5000000    0.00000       Uiso       1.00
       C31          C  0.5916700  0.2207000  0.5000000    0.00000       Uiso       1.00
       O32          O  0.5596400  0.1806500  0.5000000    0.00000       Uiso       1.00
       C33          C  0.5112600  0.0869800  0.5000000    0.00000       Uiso       1.00
       C34          C  0.4890200  0.0438900  0.5000000    0.00000       Uiso       1.00
       C35          C  0.4447700  0.0208700  0.5000000    0.00000       Uiso       1.00
       C36          C  0.6664300  0.2945700  0.5000000    0.00000       Uiso       1.00
       C37          C  0.7422100  0.3338800  0.5000000    0.00000       Uiso       1.00
       C38          C  0.7793000  0.3709700  0.5000000    0.00000       Uiso       1.00
       O39          O  0.8193500  0.3789900  0.5000000    0.00000       Uiso       1.00
       C40          C  0.9130200  0.4242800  0.5000000    0.00000       Uiso       1.00
       C41          C  0.9561100  0.4451300  0.5000000    0.00000       Uiso       1.00
       C42          C  0.9791300  0.4239000  0.5000000    0.00000       Uiso       1.00
       C43          C  0.6281400  0.2945700  0.5000000    0.00000       Uiso       1.00
       C44          C  0.5916700  0.3338800  0.5000000    0.00000       Uiso       1.00
       C45          C  0.5916700  0.3709700  0.5000000    0.00000       Uiso       1.00
       O46          O  0.5596400  0.3789900  0.5000000    0.00000       Uiso       1.00
       C47          C  0.5112600  0.4242800  0.5000000    0.00000       Uiso       1.00
       C48          C  0.4890200  0.4451300  0.5000000    0.00000       Uiso       1.00
       C49          C  0.4447700  0.4239000  0.5000000    0.00000       Uiso       1.00
       C50          C  0.6664300  0.3718600  0.5000000    0.00000       Uiso       1.00
       C51          C  0.7422100  0.4083300  0.5000000    0.00000       Uiso       1.00
       C52          C  0.7793000  0.4083300  0.5000000    0.00000       Uiso       1.00
       O53          O  0.8193500  0.4403600  0.5000000    0.00000       Uiso       1.00
       C54          C  0.9130200  0.4887400  0.5000000    0.00000       Uiso       1.00
       C55          C  0.9561100  0.5109800  0.5000000    0.00000       Uiso       1.00
       C56          C  0.9791300  0.5552300  0.5000000    0.00000       Uiso       1.00
       C57          C  0.7054300  0.3335700  0.5000000    0.00000       Uiso       1.00
       C58          C  0.6661200  0.2577900  0.5000000    0.00000       Uiso       1.00
       C59          C  0.6290300  0.2207000  0.5000000    0.00000       Uiso       1.00
       O60          O  0.6210100  0.1806500  0.5000000    0.00000       Uiso       1.00
       C61          C  0.5757200  0.0869800  0.5000000    0.00000       Uiso       1.00
       C62          C  0.5548700  0.0438900  0.5000000    0.00000       Uiso       1.00
       C63          C  0.5761000  0.0208700  0.5000000    0.00000       Uiso       1.00
       C64          C  0.3718600  0.7054300  0.5000000    0.00000       Uiso       1.00
       C65          C  0.4083300  0.6661200  0.5000000    0.00000       Uiso       1.00
       C66          C  0.4083300  0.6290300  0.5000000    0.00000       Uiso       1.00
       O67          O  0.4403600  0.6210100  0.5000000    0.00000       Uiso       1.00
       C68          C  0.4887400  0.5757200  0.5000000    0.00000       Uiso       1.00
       C69          C  0.5109800  0.5548700  0.5000000    0.00000       Uiso       1.00
       C70          C  0.5552300  0.5761000  0.5000000    0.00000       Uiso       1.00
       C71          C  0.3335700  0.6281400  0.5000000    0.00000       Uiso       1.00
       C72          C  0.2577900  0.5916700  0.5000000    0.00000       Uiso       1.00
       C73          C  0.2207000  0.5916700  0.5000000    0.00000       Uiso       1.00
       O74          O  0.1806500  0.5596400  0.5000000    0.00000       Uiso       1.00
       C75          C  0.0869800  0.5112600  0.5000000    0.00000       Uiso       1.00
       C76          C  0.0438900  0.4890200  0.5000000    0.00000       Uiso       1.00
       C77          C  0.0208700  0.4447700  0.5000000    0.00000       Uiso       1.00
       C78          C  0.2945700  0.6664300  0.5000000    0.00000       Uiso       1.00
       C79          C  0.3338800  0.7422100  0.5000000    0.00000       Uiso       1.00
       C80          C  0.3709700  0.7793000  0.5000000    0.00000       Uiso       1.00
       O81          O  0.3789900  0.8193500  0.5000000    0.00000       Uiso       1.00
       C82          C  0.4242800  0.9130200  0.5000000    0.00000       Uiso       1.00
       C83          C  0.4451300  0.9561100  0.5000000    0.00000       Uiso       1.00
       C84          C  0.4239000  0.9791300  0.5000000    0.00000       Uiso       1.00
       C85          C  0.4455200  0.5544800  0.5000000    0.00000       Uiso       1.00
       C86          C  0.4890500  0.5109500  0.5000000    0.00000       Uiso       1.00
       B87          B  0.4218100  0.5781900  0.5000000    0.00000       Uiso       1.00
       C88          C  0.4455200  0.8910400  0.5000000    0.00000       Uiso       1.00
       C89          C  0.4890500  0.9781000  0.5000000    0.00000       Uiso       1.00
       B90          B  0.4218100  0.8436200  0.5000000    0.00000       Uiso       1.00
       C91          C  0.1089600  0.5544800  0.5000000    0.00000       Uiso       1.00
       C92          C  0.0219000  0.5109500  0.5000000    0.00000       Uiso       1.00
       B93          B  0.1563800  0.5781900  0.5000000    0.00000       Uiso       1.00
       C94          C  0.5544800  0.4455200  0.5000000    0.00000       Uiso       1.00
       C95          C  0.5109500  0.4890500  0.5000000    0.00000       Uiso       1.00
       B96          B  0.5781900  0.4218100  0.5000000    0.00000       Uiso       1.00
       C97          C  0.5544800  0.1089600  0.5000000    0.00000       Uiso       1.00
       C98          C  0.5109500  0.0219000  0.5000000    0.00000       Uiso       1.00
       B99          B  0.5781900  0.1563800  0.5000000    0.00000       Uiso       1.00
      C100          C  0.8910400  0.4455200  0.5000000    0.00000       Uiso       1.00
      C101          C  0.9781000  0.4890500  0.5000000    0.00000       Uiso       1.00
      B102          B  0.8436200  0.4218100  0.5000000    0.00000       Uiso       1.00
      H103          H  0.3036430  0.5611760  0.5000000    0.00000       Uiso       1.00
      H104          H  0.3892220  0.4942960  0.5000000    0.00000       Uiso       1.00
      H105          H  0.3888450  0.4265340  0.5000000    0.00000       Uiso       1.00
      H106          H  0.4388240  0.7424670  0.5000000    0.00000       Uiso       1.00
      H107          H  0.5057040  0.8949250  0.5000000    0.00000       Uiso       1.00
      H108          H  0.5734660  0.9623120  0.5000000    0.00000       Uiso       1.00
      H109          H  0.2575330  0.6963570  0.5000000    0.00000       Uiso       1.00
      H110          H  0.1050750  0.6107780  0.5000000    0.00000       Uiso       1.00
      H111          H  0.0376880  0.6111550  0.5000000    0.00000       Uiso       1.00
      H112          H  0.6963570  0.4388240  0.5000000    0.00000       Uiso       1.00
      H113          H  0.6107780  0.5057040  0.5000000    0.00000       Uiso       1.00
      H114          H  0.6111550  0.5734660  0.5000000    0.00000       Uiso       1.00
      H115          H  0.5611760  0.2575330  0.5000000    0.00000       Uiso       1.00
      H116          H  0.4942960  0.1050750  0.5000000    0.00000       Uiso       1.00
      H117          H  0.4265340  0.0376880  0.5000000    0.00000       Uiso       1.00
      H118          H  0.7424670  0.3036430  0.5000000    0.00000       Uiso       1.00
      H119          H  0.8949250  0.3892220  0.5000000    0.00000       Uiso       1.00
      H120          H  0.9623120  0.3888450  0.5000000    0.00000       Uiso       1.00
      H121          H  0.5611760  0.3036430  0.5000000    0.00000       Uiso       1.00
      H122          H  0.4942960  0.3892220  0.5000000    0.00000       Uiso       1.00
      H123          H  0.4265340  0.3888450  0.5000000    0.00000       Uiso       1.00
      H124          H  0.7424669  0.4388240  0.5000000    0.00000       Uiso       1.00
      H125          H  0.8949250  0.5057040  0.5000000    0.00000       Uiso       1.00
      H126          H  0.9623120  0.5734660  0.5000000    0.00000       Uiso       1.00
      H127          H  0.6963570  0.2575330  0.5000000    0.00000       Uiso       1.00
      H128          H  0.6107780  0.1050750  0.5000000    0.00000       Uiso       1.00
      H129          H  0.6111550  0.0376880  0.5000000    0.00000       Uiso       1.00
      H130          H  0.4388240  0.6963570  0.5000000    0.00000       Uiso       1.00
      H131          H  0.5057040  0.6107780  0.5000000    0.00000       Uiso       1.00
      H132          H  0.5734660  0.6111550  0.5000000    0.00000       Uiso       1.00
      H133          H  0.2575330  0.5611760  0.5000000    0.00000       Uiso       1.00
      H134          H  0.1050750  0.4942960  0.5000000    0.00000       Uiso       1.00
      H135          H  0.0376880  0.4265340  0.5000000    0.00000       Uiso       1.00
      H136          H  0.3036430  0.7424670  0.5000000    0.00000       Uiso       1.00
      H137          H  0.3892220  0.8949250  0.5000000    0.00000       Uiso       1.00
      H138          H  0.3888450  0.9623120  0.5000000    0.00000       Uiso       1.00
