data_BLP-2H-AB
_audit_creation_date              0000-00-00
_audit_creation_method            'LanYouShi'
_symmetry_space_group_name_H-M    'P1'
_cell_length_a                    15.2196999
_cell_length_b                    15.2196999
_cell_length_c                    7.0592999
_cell_angle_alpha                 90.0000000
_cell_angle_beta                  90.0000000
_cell_angle_gamma                 120.0000000
loop_
_atom_site_label
_atom_site_type_symbol
_atom_site_fract_x
_atom_site_fract_y
_atom_site_fract_z
_atom_site_U_iso_or_equiv
_atom_site_adp_type
_atom_site_occupancy
        B1          B  0.3869000  0.6131000  0.2500000    0.00000       Uiso       1.00
        H2          H  0.4303000  0.5697000  0.2500000    0.00000       Uiso       1.00
        B3          B  0.3869000  0.7738000  0.2500000    0.00000       Uiso       1.00
        H4          H  0.4303000  0.8606000  0.2500000    0.00000       Uiso       1.00
        B5          B  0.2262000  0.6131000  0.2500000    0.00000       Uiso       1.00
        H6          H  0.1394000  0.5697000  0.2500000    0.00000       Uiso       1.00
        B7          B  0.6131000  0.3869000  0.7500000    0.00000       Uiso       1.00
        H8          H  0.5697000  0.4303000  0.7500000    0.00000       Uiso       1.00
        B9          B  0.6131000  0.2262000  0.7500000    0.00000       Uiso       1.00
       H10          H  0.5697000  0.1394000  0.7500000    0.00000       Uiso       1.00
       B11          B  0.7738000  0.3869000  0.7500000    0.00000       Uiso       1.00
       H12          H  0.8606000  0.4303000  0.7500000    0.00000       Uiso       1.00
       C13          C  0.0540500  0.1081000  0.2500000    0.00000       Uiso       1.00
       C14          C  0.1117000  0.2234000  0.2500000    0.00000       Uiso       1.00
       C15          C  0.2220500  0.4441000  0.2500000    0.00000       Uiso       1.00
       N16          N  0.2781500  0.5563000  0.2500000    0.00000       Uiso       1.00
       C17          C  0.8919000  0.9459500  0.2500000    0.00000       Uiso       1.00
       C18          C  0.7766000  0.8883000  0.2500000    0.00000       Uiso       1.00
       C19          C  0.5559000  0.7779500  0.2500000    0.00000       Uiso       1.00
       N20          N  0.4437000  0.7218499  0.2500000    0.00000       Uiso       1.00
       C21          C  0.0540500  0.9459500  0.2500000    0.00000       Uiso       1.00
       C22          C  0.1117000  0.8883000  0.2500000    0.00000       Uiso       1.00
       C23          C  0.2220500  0.7779500  0.2500000    0.00000       Uiso       1.00
       N24          N  0.2781500  0.7218499  0.2500000    0.00000       Uiso       1.00
       C25          C  0.9459500  0.8919001  0.7500000    0.00000       Uiso       1.00
       C26          C  0.8883000  0.7766000  0.7500000    0.00000       Uiso       1.00
       C27          C  0.7779500  0.5559000  0.7500000    0.00000       Uiso       1.00
       N28          N  0.7218500  0.4437000  0.7500000    0.00000       Uiso       1.00
       C29          C  0.1081000  0.0540500  0.7500000    0.00000       Uiso       1.00
       C30          C  0.2234000  0.1117000  0.7500000    0.00000       Uiso       1.00
       C31          C  0.4441000  0.2220500  0.7500000    0.00000       Uiso       1.00
       N32          N  0.5563000  0.2781500  0.7500000    0.00000       Uiso       1.00
       C33          C  0.9459500  0.0540500  0.7500000    0.00000       Uiso       1.00
       C34          C  0.8883000  0.1117000  0.7500000    0.00000       Uiso       1.00
       C35          C  0.7779500  0.2220500  0.7500000    0.00000       Uiso       1.00
       N36          N  0.7218500  0.2781500  0.7500000    0.00000       Uiso       1.00
       C37          C  0.1047000  0.0523500  0.2500000    0.00000       Uiso       1.00
       C38          C  0.9476500  0.0523500  0.2500000    0.00000       Uiso       1.00
       C39          C  0.9476500  0.8953000  0.2500000    0.00000       Uiso       1.00
       C40          C  0.8953000  0.9476500  0.7500000    0.00000       Uiso       1.00
       C41          C  0.0523500  0.9476500  0.7500000    0.00000       Uiso       1.00
       C42          C  0.0523500  0.1047000  0.7500000    0.00000       Uiso       1.00
       C43          C  0.2190000  0.2800000  0.2500000    0.00000       Uiso       1.00
       C44          C  0.2712000  0.3860000  0.2500000    0.00000       Uiso       1.00
       H45          H  0.5805000  0.6484000  0.2500000    0.00000       Uiso       1.00
       H46          H  0.7529000  0.7324000  0.2500000    0.00000       Uiso       1.00
       C47          C  0.7200000  0.9390000  0.2500000    0.00000       Uiso       1.00
       C48          C  0.6140000  0.8852000  0.2500000    0.00000       Uiso       1.00
       H49          H  0.3516000  0.9321000  0.2500000    0.00000       Uiso       1.00
       H50          H  0.2676000  0.0205000  0.2500000    0.00000       Uiso       1.00
       C51          C  0.0610000  0.7810000  0.2500000    0.00000       Uiso       1.00
       C52          C  0.1148000  0.7288000  0.2500000    0.00000       Uiso       1.00
       H53          H  0.0679000  0.4195000  0.2500000    0.00000       Uiso       1.00
       H54          H  0.9795000  0.2471000  0.2500000    0.00000       Uiso       1.00
       C55          C  0.7810000  0.7200000  0.7500000    0.00000       Uiso       1.00
       C56          C  0.7288000  0.6140000  0.7500000    0.00000       Uiso       1.00
       H57          H  0.4195000  0.3516000  0.7500000    0.00000       Uiso       1.00
       H58          H  0.2471000  0.2676000  0.7500000    0.00000       Uiso       1.00
       C59          C  0.2800000  0.0610000  0.7500000    0.00000       Uiso       1.00
       C60          C  0.3860000  0.1148000  0.7500000    0.00000       Uiso       1.00
       H61          H  0.6484000  0.0679000  0.7500000    0.00000       Uiso       1.00
       H62          H  0.7324000  0.9795000  0.7500000    0.00000       Uiso       1.00
       C63          C  0.9390000  0.2190000  0.7500000    0.00000       Uiso       1.00
       C64          C  0.8852000  0.2712000  0.7500000    0.00000       Uiso       1.00
       H65          H  0.9321000  0.5805000  0.7500000    0.00000       Uiso       1.00
       H66          H  0.0205000  0.7529000  0.7500000    0.00000       Uiso       1.00
       C67          C  0.2800000  0.2190000  0.7500000    0.00000       Uiso       1.00
       C68          C  0.3860000  0.2712000  0.7500000    0.00000       Uiso       1.00
       H69          H  0.6484000  0.5805000  0.7500000    0.00000       Uiso       1.00
       H70          H  0.7324000  0.7529000  0.7500000    0.00000       Uiso       1.00
       C71          C  0.9390000  0.7200000  0.7500000    0.00000       Uiso       1.00
       C72          C  0.8852000  0.6140000  0.7500000    0.00000       Uiso       1.00
       H73          H  0.9321000  0.3516000  0.7500000    0.00000       Uiso       1.00
       H74          H  0.0205000  0.2676000  0.7500000    0.00000       Uiso       1.00
       C75          C  0.7810000  0.0610000  0.7500000    0.00000       Uiso       1.00
       C76          C  0.7288000  0.1148000  0.7500000    0.00000       Uiso       1.00
       H77          H  0.4195000  0.0679000  0.7500000    0.00000       Uiso       1.00
       H78          H  0.2471000  0.9795000  0.7500000    0.00000       Uiso       1.00
       C79          C  0.7200000  0.7810000  0.2500000    0.00000       Uiso       1.00
       C80          C  0.6140000  0.7288000  0.2500000    0.00000       Uiso       1.00
       H81          H  0.3516000  0.4195000  0.2500000    0.00000       Uiso       1.00
       H82          H  0.2676000  0.2471000  0.2500000    0.00000       Uiso       1.00
       C83          C  0.0610000  0.2800000  0.2500000    0.00000       Uiso       1.00
       C84          C  0.1148000  0.3860000  0.2500000    0.00000       Uiso       1.00
       H85          H  0.0679000  0.6484000  0.2500000    0.00000       Uiso       1.00
       H86          H  0.9795000  0.7324000  0.2500000    0.00000       Uiso       1.00
       C87          C  0.2190000  0.9390000  0.2500000    0.00000       Uiso       1.00
       C88          C  0.2712000  0.8852000  0.2500000    0.00000       Uiso       1.00
       H89          H  0.5805000  0.9321000  0.2500000    0.00000       Uiso       1.00
       H90          H  0.7529000  0.0205000  0.2500000    0.00000       Uiso       1.00
       H91          H  0.0921000  0.1842000  0.7500000    0.00000       Uiso       1.00
       H92          H  0.8158000  0.9079000  0.7500000    0.00000       Uiso       1.00
       H93          H  0.0921000  0.9079000  0.7500000    0.00000       Uiso       1.00
       H94          H  0.9079000  0.8158000  0.2500000    0.00000       Uiso       1.00
       H95          H  0.1842000  0.0921000  0.2500000    0.00000       Uiso       1.00
       H96          H  0.9079000  0.0921000  0.2500000    0.00000       Uiso       1.00
