data_TpPa-F4-ff
_audit_creation_date              0000-00-00
_audit_creation_method            'LanYouShi'
_symmetry_space_group_name_H-M    'P1'
_cell_length_a                    22.1200008
_cell_length_b                    22.1200008
_cell_length_c                    3.2800000
_cell_angle_alpha                 90.0000000
_cell_angle_beta                  90.0000000
_cell_angle_gamma                 120.0000000
loop_
_atom_site_label
_atom_site_type_symbol
_atom_site_fract_x
_atom_site_fract_y
_atom_site_fract_z
_atom_site_U_iso_or_equiv
_atom_site_adp_type
_atom_site_occupancy
        F1          F  0.4283100  0.3566000  0.0000000    0.00000       Uiso       1.00
        F2          F  0.3577700  0.4260300  0.0000000    0.00000       Uiso       1.00
        O3          O  0.7039500  0.4709300  0.0000000    0.00000       Uiso       1.00
        N4          N  0.5796700  0.4356200  0.0000000    0.00000       Uiso       1.00
        C5          C  0.6859700  0.4065300  0.0000000    0.00000       Uiso       1.00
        C6          C  0.6137900  0.3521500  0.0000000    0.00000       Uiso       1.00
        C7          C  0.5612000  0.3683900  0.0000000    0.00000       Uiso       1.00
        C8          C  0.5379000  0.4643200  0.0000000    0.00000       Uiso       1.00
        C9          C  0.4281200  0.4623900  0.0000000    0.00000       Uiso       1.00
       C10          C  0.4646500  0.4272800  0.0000000    0.00000       Uiso       1.00
       H11          H  0.6223410  0.4759870  0.0000000    0.00000       Uiso       1.00
       H12          H  0.5078340  0.3272520  0.0000000    0.00000       Uiso       1.00
       F13          F  0.6434000  0.0717100  0.0000000    0.00000       Uiso       1.00
       F14          F  0.5739700  0.9317400  0.0000000    0.00000       Uiso       1.00
       O15          O  0.5290700  0.2330200  0.0000000    0.00000       Uiso       1.00
       N16          N  0.5643800  0.1440500  0.0000000    0.00000       Uiso       1.00
       C17          C  0.5934700  0.2794400  0.0000000    0.00000       Uiso       1.00
       C18          C  0.6478500  0.2616400  0.0000000    0.00000       Uiso       1.00
       C19          C  0.6316100  0.1928100  0.0000000    0.00000       Uiso       1.00
       C20          C  0.5356800  0.0735800  0.0000000    0.00000       Uiso       1.00
       C21          C  0.5376100  0.9657300  0.0000000    0.00000       Uiso       1.00
       C22          C  0.5727200  0.0373700  0.0000000    0.00000       Uiso       1.00
       H23          H  0.5240130  0.1463540  0.0000000    0.00000       Uiso       1.00
       H24          H  0.6727480  0.1805820  0.0000000    0.00000       Uiso       1.00
       F25          F  0.9282900  0.5716900  0.0000000    0.00000       Uiso       1.00
       F26          F  0.0682600  0.6422300  0.0000000    0.00000       Uiso       1.00
       O27          O  0.7669800  0.2960500  0.0000000    0.00000       Uiso       1.00
       N28          N  0.8559500  0.4203300  0.0000000    0.00000       Uiso       1.00
       C29          C  0.7205600  0.3140300  0.0000000    0.00000       Uiso       1.00
       C30          C  0.7383600  0.3862100  0.0000000    0.00000       Uiso       1.00
       C31          C  0.8071900  0.4388000  0.0000000    0.00000       Uiso       1.00
       C32          C  0.9264200  0.4621000  0.0000000    0.00000       Uiso       1.00
       C33          C  0.0342700  0.5718800  0.0000000    0.00000       Uiso       1.00
       C34          C  0.9626300  0.5353500  0.0000000    0.00000       Uiso       1.00
       H35          H  0.8536460  0.3776590  0.0000000    0.00000       Uiso       1.00
       H36          H  0.8194180  0.4921660  0.0000000    0.00000       Uiso       1.00
       F37          F  0.5716900  0.6434000  0.0000000    0.00000       Uiso       1.00
       F38          F  0.6422300  0.5739700  0.0000000    0.00000       Uiso       1.00
       O39          O  0.2960500  0.5290700  0.0000000    0.00000       Uiso       1.00
       N40          N  0.4203300  0.5643800  0.0000000    0.00000       Uiso       1.00
       C41          C  0.3140300  0.5934700  0.0000000    0.00000       Uiso       1.00
       C42          C  0.3862100  0.6478500  0.0000000    0.00000       Uiso       1.00
       C43          C  0.4388000  0.6316100  0.0000000    0.00000       Uiso       1.00
       C44          C  0.4621000  0.5356800  0.0000000    0.00000       Uiso       1.00
       C45          C  0.5718800  0.5376100  0.0000000    0.00000       Uiso       1.00
       C46          C  0.5353500  0.5727200  0.0000000    0.00000       Uiso       1.00
       H47          H  0.3776590  0.5240130  0.0000000    0.00000       Uiso       1.00
       H48          H  0.4921660  0.6727480  0.0000000    0.00000       Uiso       1.00
       F49          F  0.3566000  0.9282901  0.0000000    0.00000       Uiso       1.00
       F50          F  0.4260300  0.0682600  0.0000000    0.00000       Uiso       1.00
       O51          O  0.4709300  0.7669800  0.0000000    0.00000       Uiso       1.00
       N52          N  0.4356200  0.8559500  0.0000000    0.00000       Uiso       1.00
       C53          C  0.4065300  0.7205600  0.0000000    0.00000       Uiso       1.00
       C54          C  0.3521500  0.7383600  0.0000000    0.00000       Uiso       1.00
       C55          C  0.3683900  0.8071900  0.0000000    0.00000       Uiso       1.00
       C56          C  0.4643200  0.9264200  0.0000000    0.00000       Uiso       1.00
       C57          C  0.4623900  0.0342700  0.0000000    0.00000       Uiso       1.00
       C58          C  0.4272800  0.9626300  0.0000000    0.00000       Uiso       1.00
       H59          H  0.4759870  0.8536459  0.0000000    0.00000       Uiso       1.00
       H60          H  0.3272520  0.8194180  0.0000000    0.00000       Uiso       1.00
       F61          F  0.0717100  0.4283100  0.0000000    0.00000       Uiso       1.00
       F62          F  0.9317400  0.3577700  0.0000000    0.00000       Uiso       1.00
       O63          O  0.2330200  0.7039500  0.0000000    0.00000       Uiso       1.00
       N64          N  0.1440500  0.5796700  0.0000000    0.00000       Uiso       1.00
       C65          C  0.2794400  0.6859700  0.0000000    0.00000       Uiso       1.00
       C66          C  0.2616400  0.6137900  0.0000000    0.00000       Uiso       1.00
       C67          C  0.1928100  0.5612000  0.0000000    0.00000       Uiso       1.00
       C68          C  0.0735800  0.5379000  0.0000000    0.00000       Uiso       1.00
       C69          C  0.9657300  0.4281200  0.0000000    0.00000       Uiso       1.00
       C70          C  0.0373700  0.4646500  0.0000000    0.00000       Uiso       1.00
       H71          H  0.1463540  0.6223410  0.0000000    0.00000       Uiso       1.00
       H72          H  0.1805820  0.5078340  0.0000000    0.00000       Uiso       1.00
