data_TpPa-SO3H-Py
_audit_creation_date              0000-00-00
_audit_creation_method            'LanYouShi'
_symmetry_space_group_name_H-M    'P1'
_cell_length_a                    3.3000000
_cell_length_b                    46.5646019
_cell_length_c                    46.5646019
_cell_angle_alpha                 60.0000000
_cell_angle_beta                  90.0000000
_cell_angle_gamma                 90.0000000
loop_
_atom_site_label
_atom_site_type_symbol
_atom_site_fract_x
_atom_site_fract_y
_atom_site_fract_z
_atom_site_U_iso_or_equiv
_atom_site_adp_type
_atom_site_occupancy
        C1          C -0.6123780  0.3070420 -0.0993990    0.00000       Uiso       1.00
        C2          C -0.6123780  0.1929780  0.0994130    0.00000       Uiso       1.00
        C3          C -0.6123780  0.4006040 -0.2076190    0.00000       Uiso       1.00
        C4          C -0.6123780  0.0994160  0.2076330    0.00000       Uiso       1.00
        C5          C -0.6123780  0.2923840 -0.1929610    0.00000       Uiso       1.00
        C6          C -0.6123780  0.2076360  0.1929750    0.00000       Uiso       1.00
        C7          C -0.6123780  0.3070420  0.4006010    0.00000       Uiso       1.00
        C8          C -0.6123780  0.1929780  0.5994130    0.00000       Uiso       1.00
        C9          C -0.6123780  0.4006040  0.2923810    0.00000       Uiso       1.00
       C10          C -0.6123780  0.0994160  0.7076330    0.00000       Uiso       1.00
       C11          C -0.6123780  0.2923840  0.3070390    0.00000       Uiso       1.00
       C12          C -0.6123780  0.2076360  0.6929750    0.00000       Uiso       1.00
       C13          C -0.6123780  0.8070420 -0.5993990    0.00000       Uiso       1.00
       C14          C -0.6123780  0.6929780 -0.4005870    0.00000       Uiso       1.00
       C15          C -0.6123780  0.9006040 -0.7076190    0.00000       Uiso       1.00
       C16          C -0.6123780  0.5994160 -0.2923670    0.00000       Uiso       1.00
       C17          C -0.6123780  0.7923840 -0.6929610    0.00000       Uiso       1.00
       C18          C -0.6123780  0.7076360 -0.3070250    0.00000       Uiso       1.00
       C19          C -0.6123780  0.8070419 -0.0993990    0.00000       Uiso       1.00
       C20          C -0.6123780  0.6929780  0.0994130    0.00000       Uiso       1.00
       C21          C -0.6123780  0.9006040 -0.2076190    0.00000       Uiso       1.00
       C22          C -0.6123780  0.5994160  0.2076330    0.00000       Uiso       1.00
       C23          C -0.6123780  0.7923841 -0.1929610    0.00000       Uiso       1.00
       C24          C -0.6123780  0.7076360  0.1929750    0.00000       Uiso       1.00
       N25          N -0.6123780  0.2707610 -0.0732910    0.00000       Uiso       1.00
       N26          N -0.6123780  0.2292600  0.0733050    0.00000       Uiso       1.00
       N27          N -0.6123780  0.4267120 -0.1974450    0.00000       Uiso       1.00
       N28          N -0.6123780  0.0733080  0.1974590    0.00000       Uiso       1.00
       N29          N -0.6123780  0.3025580 -0.2292430    0.00000       Uiso       1.00
       N30          N -0.6123780  0.1974630  0.2292570    0.00000       Uiso       1.00
       N31          N -0.6123780  0.2707600  0.4267090    0.00000       Uiso       1.00
       N32          N -0.6123780  0.2292600  0.5733040    0.00000       Uiso       1.00
       N33          N -0.6123780  0.4267120  0.3025540    0.00000       Uiso       1.00
       N34          N -0.6123780  0.0733080  0.6974590    0.00000       Uiso       1.00
       N35          N -0.6123780  0.3025580  0.2707570    0.00000       Uiso       1.00
       N36          N -0.6123780  0.1974630  0.7292560    0.00000       Uiso       1.00
       N37          N -0.6123780  0.7707600 -0.5732900    0.00000       Uiso       1.00
       N38          N -0.6123780  0.7292600 -0.4266950    0.00000       Uiso       1.00
       N39          N -0.6123780  0.9267120 -0.6974450    0.00000       Uiso       1.00
       N40          N -0.6123780  0.5733080 -0.3025400    0.00000       Uiso       1.00
       N41          N -0.6123780  0.8025570 -0.7292420    0.00000       Uiso       1.00
       N42          N -0.6123780  0.6974620 -0.2707430    0.00000       Uiso       1.00
       N43          N -0.6123780  0.7707600 -0.0732910    0.00000       Uiso       1.00
       N44          N -0.6123780  0.7292601  0.0733050    0.00000       Uiso       1.00
       N45          N -0.6123780  0.9267120 -0.1974450    0.00000       Uiso       1.00
       N46          N -0.6123780  0.5733080  0.1974590    0.00000       Uiso       1.00
       N47          N -0.6123780  0.8025580 -0.2292430    0.00000       Uiso       1.00
       N48          N -0.6123780  0.6974620  0.2292570    0.00000       Uiso       1.00
       C49          C -0.6123780  0.2605550 -0.0370120    0.00000       Uiso       1.00
       C50          C -0.6123780  0.2394660  0.0370260    0.00000       Uiso       1.00
       C51          C -0.6123780  0.4629920 -0.2235190    0.00000       Uiso       1.00
       C52          C -0.6123780  0.0370290  0.2235330    0.00000       Uiso       1.00
       C53          C -0.6123780  0.2764840 -0.2394480    0.00000       Uiso       1.00
       C54          C -0.6123780  0.2235360  0.2394620    0.00000       Uiso       1.00
       C55          C -0.6123780  0.2605550  0.4629880    0.00000       Uiso       1.00
       C56          C -0.6123780  0.2394650  0.5370250    0.00000       Uiso       1.00
       C57          C -0.6123780  0.4629920  0.2764810    0.00000       Uiso       1.00
       C58          C -0.6123780  0.0370290  0.7235330    0.00000       Uiso       1.00
       C59          C -0.6123780  0.2764840  0.2605520    0.00000       Uiso       1.00
       C60          C -0.6123780  0.2235360  0.7394620    0.00000       Uiso       1.00
       C61          C -0.6123780  0.7605550 -0.5370110    0.00000       Uiso       1.00
       C62          C -0.6123780  0.7394650 -0.4629740    0.00000       Uiso       1.00
       C63          C -0.6123780  0.9629910 -0.7235190    0.00000       Uiso       1.00
       C64          C -0.6123780  0.5370290 -0.2764670    0.00000       Uiso       1.00
       C65          C -0.6123780  0.7764840 -0.7394480    0.00000       Uiso       1.00
       C66          C -0.6123780  0.7235360 -0.2605380    0.00000       Uiso       1.00
       C67          C -0.6123780  0.7605550 -0.0370120    0.00000       Uiso       1.00
       C68          C -0.6123780  0.7394650  0.0370260    0.00000       Uiso       1.00
       C69          C -0.6123780  0.9629910 -0.2235190    0.00000       Uiso       1.00
       C70          C -0.6123780  0.5370290  0.2235330    0.00000       Uiso       1.00
       C71          C -0.6123780  0.7764840 -0.2394480    0.00000       Uiso       1.00
       C72          C -0.6123780  0.7235360  0.2394620    0.00000       Uiso       1.00
       C73          C -0.6123780  0.2234940 -0.0105470    0.00000       Uiso       1.00
       C74          C -0.6123780  0.2765270  0.0105610    0.00000       Uiso       1.00
       N75          N -0.6123780  0.4894570 -0.2129230    0.00000       Uiso       1.00
       C76          C -0.6123780  0.0105640  0.2129370    0.00000       Uiso       1.00
       N77          N -0.6123780  0.2870800 -0.2765090    0.00000       Uiso       1.00
       C78          C -0.6123780  0.2129400  0.2765230    0.00000       Uiso       1.00
       N79          N -0.6123780  0.2234940  0.4894530    0.00000       Uiso       1.00
       C80          C -0.6123780  0.2765270  0.5105600    0.00000       Uiso       1.00
       C81          C -0.6123780  0.4894570  0.2870770    0.00000       Uiso       1.00
       C82          C -0.6123780  0.0105640  0.7129360    0.00000       Uiso       1.00
       N83          N -0.6123780  0.2870800  0.2234900    0.00000       Uiso       1.00
       C84          C -0.6123780  0.2129400  0.7765230    0.00000       Uiso       1.00
       N85          N -0.6123780  0.7234930 -0.5105460    0.00000       Uiso       1.00
       C86          C -0.6123780  0.7765270 -0.4894390    0.00000       Uiso       1.00
       C87          C -0.6123780  0.9894560 -0.7129220    0.00000       Uiso       1.00
       C88          C -0.6123780  0.5105640 -0.2870630    0.00000       Uiso       1.00
       N89          N -0.6123780  0.7870800 -0.7765090    0.00000       Uiso       1.00
       C90          C -0.6123780  0.7129400 -0.2234760    0.00000       Uiso       1.00
       N91          N -0.6123780  0.7234930 -0.0105470    0.00000       Uiso       1.00
       C92          C -0.6123780  0.7765270  0.0105610    0.00000       Uiso       1.00
       N93          N -0.6123780  0.9894560 -0.2129230    0.00000       Uiso       1.00
       C94          C -0.6123780  0.5105640  0.2129370    0.00000       Uiso       1.00
       C95          C -0.6123780  0.7870800 -0.2765090    0.00000       Uiso       1.00
       C96          C -0.6123780  0.7129400  0.2765230    0.00000       Uiso       1.00
       C97          C -0.6123780  0.2129460  0.0265030    0.00000       Uiso       1.00
       C98          C -0.6123780  0.2870750 -0.0264890    0.00000       Uiso       1.00
       C99          C -0.6123780  0.0265060  0.2605760    0.00000       Uiso       1.00
      C100          C -0.6123780  0.4735140 -0.2605620    0.00000       Uiso       1.00
      C101          C -0.6123780  0.2605790  0.2129420    0.00000       Uiso       1.00
      C102          C -0.6123780  0.2394410 -0.2129280    0.00000       Uiso       1.00
      C103          C -0.6123780  0.2129460  0.5265020    0.00000       Uiso       1.00
      C104          C -0.6123780  0.2870750  0.4735110    0.00000       Uiso       1.00
      C105          C -0.6123780  0.0265060  0.7605750    0.00000       Uiso       1.00
      C106          C -0.6123780  0.4735140  0.2394380    0.00000       Uiso       1.00
      C107          C -0.6123780  0.2605790  0.7129420    0.00000       Uiso       1.00
      C108          C -0.6123780  0.2394410  0.2870710    0.00000       Uiso       1.00
      C109          C -0.6123780  0.7129450 -0.4734970    0.00000       Uiso       1.00
      C110          C -0.6123780  0.7870750 -0.5264890    0.00000       Uiso       1.00
      C111          C -0.6123780  0.5265060 -0.2394240    0.00000       Uiso       1.00
      C112          C -0.6123780  0.9735140 -0.7605610    0.00000       Uiso       1.00
      C113          C -0.6123780  0.7605790 -0.2870580    0.00000       Uiso       1.00
      C114          C -0.6123780  0.7394410 -0.7129280    0.00000       Uiso       1.00
      C115          C -0.6123780  0.7129450  0.0265030    0.00000       Uiso       1.00
      C116          C -0.6123780  0.7870750 -0.0264890    0.00000       Uiso       1.00
      C117          C -0.6123780  0.5265060  0.2605760    0.00000       Uiso       1.00
      C118          C -0.6123780  0.9735140 -0.2605620    0.00000       Uiso       1.00
      C119          C -0.6123780  0.7605790  0.2129420    0.00000       Uiso       1.00
      C120          C -0.6123780  0.7394410 -0.2129280    0.00000       Uiso       1.00
      H121          H -0.6123780  0.3267460 -0.0917020    0.00000       Uiso       1.00
      H122          H -0.6123780  0.1732750  0.0917160    0.00000       Uiso       1.00
      H123          H -0.6123780  0.4083010 -0.2350190    0.00000       Uiso       1.00
      H124          H -0.6123780  0.0917200  0.2350330    0.00000       Uiso       1.00
      H125          H -0.6123780  0.2649840 -0.1732580    0.00000       Uiso       1.00
      H126          H -0.6123780  0.2350360  0.1732720    0.00000       Uiso       1.00
      H127          H -0.6123780  0.3267460  0.4082980    0.00000       Uiso       1.00
      H128          H -0.6123780  0.1732750  0.5917160    0.00000       Uiso       1.00
      H129          H -0.6123780  0.4083010  0.2649810    0.00000       Uiso       1.00
      H130          H -0.6123780  0.0917200  0.7350330    0.00000       Uiso       1.00
      H131          H -0.6123780  0.2649840  0.3267420    0.00000       Uiso       1.00
      H132          H -0.6123780  0.2350360  0.6732710    0.00000       Uiso       1.00
      H133          H -0.6123780  0.8267450 -0.5917020    0.00000       Uiso       1.00
      H134          H -0.6123780  0.6732750 -0.4082840    0.00000       Uiso       1.00
      H135          H -0.6123780  0.9083010 -0.7350190    0.00000       Uiso       1.00
      H136          H -0.6123780  0.5917190 -0.2649670    0.00000       Uiso       1.00
      H137          H -0.6123780  0.7649840 -0.6732570    0.00000       Uiso       1.00
      H138          H -0.6123780  0.7350360 -0.3267280    0.00000       Uiso       1.00
      H139          H -0.6123780  0.8267450 -0.0917020    0.00000       Uiso       1.00
      H140          H -0.6123780  0.6732750  0.0917160    0.00000       Uiso       1.00
      H141          H -0.6123780  0.9083010 -0.2350190    0.00000       Uiso       1.00
      H142          H -0.6123780  0.5917190  0.2350330    0.00000       Uiso       1.00
      H143          H -0.6123780  0.7649840 -0.1732580    0.00000       Uiso       1.00
      H144          H -0.6123780  0.7350360  0.1732720    0.00000       Uiso       1.00
      H145          H -0.6123780  0.2960610  0.0183830    0.00000       Uiso       1.00
      H146          H -0.6123780  0.0183860  0.1855800    0.00000       Uiso       1.00
      H147          H -0.6123780  0.1855840  0.2960580    0.00000       Uiso       1.00
      H148          H -0.6123780  0.2960610  0.5183820    0.00000       Uiso       1.00
      H149          H -0.6123780  0.0183860  0.6855800    0.00000       Uiso       1.00
      H150          H -0.6123780  0.1855840  0.7960569    0.00000       Uiso       1.00
      H151          H -0.6123780  0.7960610 -0.4816170    0.00000       Uiso       1.00
      H152          H -0.6123780  0.5183860 -0.3144190    0.00000       Uiso       1.00
      H153          H -0.6123780  0.6855830 -0.2039420    0.00000       Uiso       1.00
      H154          H -0.6123780  0.7960610  0.0183830    0.00000       Uiso       1.00
      H155          H -0.6123780  0.5183860  0.1855800    0.00000       Uiso       1.00
      H156          H -0.6123780  0.6855830  0.2960580    0.00000       Uiso       1.00
      H157          H -0.6123780  0.1854800  0.0461450    0.00000       Uiso       1.00
      H158          H -0.6123780  0.3145400 -0.0461310    0.00000       Uiso       1.00
      H159          H -0.6123780  0.0461490  0.2683990    0.00000       Uiso       1.00
      H160          H -0.6123780  0.4538720 -0.2683850    0.00000       Uiso       1.00
      H161          H -0.6123780  0.2684020  0.1854770    0.00000       Uiso       1.00
      H162          H -0.6123780  0.2316190 -0.1854630    0.00000       Uiso       1.00
      H163          H -0.6123780  0.1854800  0.5461450    0.00000       Uiso       1.00
      H164          H -0.6123780  0.3145400  0.4538690    0.00000       Uiso       1.00
      H165          H -0.6123780  0.0461490  0.7683980    0.00000       Uiso       1.00
      H166          H -0.6123780  0.4538720  0.2316150    0.00000       Uiso       1.00
      H167          H -0.6123780  0.2684020  0.6854770    0.00000       Uiso       1.00
      H168          H -0.6123780  0.2316190  0.3145370    0.00000       Uiso       1.00
      H169          H -0.6123780  0.6854800 -0.4538550    0.00000       Uiso       1.00
      H170          H -0.6123780  0.8145400 -0.5461310    0.00000       Uiso       1.00
      H171          H -0.6123780  0.5461480 -0.2316010    0.00000       Uiso       1.00
      H172          H -0.6123780  0.9538720 -0.7683840    0.00000       Uiso       1.00
      H173          H -0.6123780  0.7684020 -0.3145230    0.00000       Uiso       1.00
      H174          H -0.6123780  0.7316180 -0.6854630    0.00000       Uiso       1.00
      H175          H -0.6123780  0.6854800  0.0461450    0.00000       Uiso       1.00
      H176          H -0.6123780  0.8145401 -0.0461310    0.00000       Uiso       1.00
      H177          H -0.6123780  0.5461480  0.2683990    0.00000       Uiso       1.00
      H178          H -0.6123780  0.9538721 -0.2683850    0.00000       Uiso       1.00
      H179          H -0.6123780  0.7684020  0.1854770    0.00000       Uiso       1.00
      H180          H -0.6123780  0.7316180 -0.1854630    0.00000       Uiso       1.00
      H181          H -0.6123780  0.2484470  0.0807840    0.00000       Uiso       1.00
      H182          H -0.6123780  0.2515740 -0.0807700    0.00000       Uiso       1.00
      H183          H -0.6123780  0.0807880  0.1707930    0.00000       Uiso       1.00
      H184          H -0.6123780  0.4192330 -0.1707790    0.00000       Uiso       1.00
      H185          H -0.6123780  0.1707970  0.2484430    0.00000       Uiso       1.00
      H186          H -0.6123780  0.3292240 -0.2484290    0.00000       Uiso       1.00
      H187          H -0.6123780  0.2484470  0.5807840    0.00000       Uiso       1.00
      H188          H -0.6123780  0.2515740  0.4192300    0.00000       Uiso       1.00
      H189          H -0.6123780  0.0807880  0.6707930    0.00000       Uiso       1.00
      H190          H -0.6123780  0.4192330  0.3292200    0.00000       Uiso       1.00
      H191          H -0.6123780  0.1707970  0.7484430    0.00000       Uiso       1.00
      H192          H -0.6123780  0.3292240  0.2515700    0.00000       Uiso       1.00
      H193          H -0.6123780  0.7484460 -0.4192160    0.00000       Uiso       1.00
      H194          H -0.6123780  0.7515740 -0.5807700    0.00000       Uiso       1.00
      H195          H -0.6123780  0.5807870 -0.3292060    0.00000       Uiso       1.00
      H196          H -0.6123780  0.9192330 -0.6707790    0.00000       Uiso       1.00
      H197          H -0.6123780  0.6707960 -0.2515560    0.00000       Uiso       1.00
      H198          H -0.6123780  0.8292240 -0.7484290    0.00000       Uiso       1.00
      H199          H -0.6123780  0.7484460  0.0807840    0.00000       Uiso       1.00
      H200          H -0.6123780  0.7515739 -0.0807700    0.00000       Uiso       1.00
      H201          H -0.6123780  0.5807870  0.1707930    0.00000       Uiso       1.00
      H202          H -0.6123780  0.9192330 -0.1707790    0.00000       Uiso       1.00
      H203          H -0.6123780  0.6707960  0.2484430    0.00000       Uiso       1.00
      H204          H -0.6123780  0.8292240 -0.2484290    0.00000       Uiso       1.00
      S205          S -0.6123780  0.1923800 -0.0230060    0.00000       Uiso       1.00
      O206          O -0.6123780  0.1600820  0.0058220    0.00000       Uiso       1.00
      O207          O -0.2880910  0.1962630 -0.0423620    0.00000       Uiso       1.00
      O208          O -0.9615870  0.1965600 -0.0438520    0.00000       Uiso       1.00
      H209          H -0.9617150  0.1800740 -0.0504820    0.00000       Uiso       1.00
      S210          S -0.6123780  0.4769980  0.3306500    0.00000       Uiso       1.00
      O211          O -0.2880910  0.4576420  0.3461230    0.00000       Uiso       1.00
      O212          O -0.9615870  0.4561510  0.3473160    0.00000       Uiso       1.00
      H213          H -0.9617150  0.4495210  0.3704320    0.00000       Uiso       1.00
      S214          S -0.6123780  0.9769970 -0.6693500    0.00000       Uiso       1.00
      O215          O -0.2880910  0.9576410 -0.6538760    0.00000       Uiso       1.00
      O216          O -0.9615870  0.9561510 -0.6526830    0.00000       Uiso       1.00
      H217          H -0.9617150  0.9495210 -0.6295680    0.00000       Uiso       1.00
      O218          O -0.6123780  0.8341230 -0.3399210    0.00000       Uiso       1.00
      O219          O -0.6123780  0.5058250  0.3341200    0.00000       Uiso       1.00
      S220          S -0.6123780  0.8306530 -0.3076230    0.00000       Uiso       1.00
      O221          O -0.2880910  0.8461260 -0.3037400    0.00000       Uiso       1.00
      O222          O -0.9615870  0.8473190 -0.3034430    0.00000       Uiso       1.00
      H223          H -0.9617150  0.8704350 -0.3199290    0.00000       Uiso       1.00
      C224          C -0.6123780  0.2012450  0.1465670    0.00000       Uiso       1.00
      C225          C -0.6123780  0.1814630  0.1312960    0.00000       Uiso       1.00
      C226          C -0.6123780  0.2987750 -0.1465530    0.00000       Uiso       1.00
      C227          C -0.6123780  0.3185580 -0.1312820    0.00000       Uiso       1.00
      C228          C -0.6123780  0.1465700  0.1522120    0.00000       Uiso       1.00
      C229          C -0.6123780  0.1313000  0.1872650    0.00000       Uiso       1.00
      C230          C -0.6123780  0.3534500 -0.1521980    0.00000       Uiso       1.00
      C231          C -0.6123780  0.3687210 -0.1872510    0.00000       Uiso       1.00
      C232          C -0.6123780  0.1522160  0.2012420    0.00000       Uiso       1.00
      C233          C -0.6123780  0.1872680  0.1814600    0.00000       Uiso       1.00
      C234          C -0.6123780  0.3478050 -0.2012280    0.00000       Uiso       1.00
      C235          C -0.6123780  0.3127520 -0.1814460    0.00000       Uiso       1.00
      C236          C -0.6123780  0.2012450  0.6465670    0.00000       Uiso       1.00
      C237          C -0.6123780  0.1814630  0.6312960    0.00000       Uiso       1.00
      C238          C -0.6123780  0.2987750  0.3534470    0.00000       Uiso       1.00
      C239          C -0.6123780  0.3185580  0.3687170    0.00000       Uiso       1.00
      C240          C -0.6123780  0.1465700  0.6522120    0.00000       Uiso       1.00
      C241          C -0.6123780  0.1313000  0.6872650    0.00000       Uiso       1.00
      C242          C -0.6123780  0.3534500  0.3478010    0.00000       Uiso       1.00
      C243          C -0.6123780  0.3687210  0.3127490    0.00000       Uiso       1.00
      C244          C -0.6123780  0.1522160  0.7012410    0.00000       Uiso       1.00
      C245          C -0.6123780  0.1872680  0.6814590    0.00000       Uiso       1.00
      C246          C -0.6123780  0.3478050  0.2987720    0.00000       Uiso       1.00
      C247          C -0.6123780  0.3127520  0.3185540    0.00000       Uiso       1.00
      C248          C -0.6123780  0.7012450 -0.3534330    0.00000       Uiso       1.00
      C249          C -0.6123780  0.6814630 -0.3687030    0.00000       Uiso       1.00
      C250          C -0.6123780  0.7987750 -0.6465530    0.00000       Uiso       1.00
      C251          C -0.6123780  0.8185570 -0.6312820    0.00000       Uiso       1.00
      C252          C -0.6123780  0.6465700 -0.3477870    0.00000       Uiso       1.00
      C253          C -0.6123780  0.6312990 -0.3127350    0.00000       Uiso       1.00
      C254          C -0.6123780  0.8534500 -0.6521980    0.00000       Uiso       1.00
      C255          C -0.6123780  0.8687210 -0.6872510    0.00000       Uiso       1.00
      C256          C -0.6123780  0.6522150 -0.2987580    0.00000       Uiso       1.00
      C257          C -0.6123780  0.6872680 -0.3185400    0.00000       Uiso       1.00
      C258          C -0.6123780  0.8478050 -0.7012270    0.00000       Uiso       1.00
      C259          C -0.6123780  0.8127520 -0.6814450    0.00000       Uiso       1.00
      C260          C -0.6123780  0.7012450  0.1465670    0.00000       Uiso       1.00
      C261          C -0.6123780  0.6814630  0.1312960    0.00000       Uiso       1.00
      C262          C -0.6123780  0.7987750 -0.1465530    0.00000       Uiso       1.00
      C263          C -0.6123780  0.8185570 -0.1312820    0.00000       Uiso       1.00
      C264          C -0.6123780  0.6465701  0.1522120    0.00000       Uiso       1.00
      C265          C -0.6123780  0.6312991  0.1872650    0.00000       Uiso       1.00
      C266          C -0.6123780  0.8534500 -0.1521980    0.00000       Uiso       1.00
      C267          C -0.6123780  0.8687210 -0.1872510    0.00000       Uiso       1.00
      C268          C -0.6123780  0.6522150  0.2012420    0.00000       Uiso       1.00
      C269          C -0.6123780  0.6872680  0.1814600    0.00000       Uiso       1.00
      C270          C -0.6123780  0.8478050 -0.2012280    0.00000       Uiso       1.00
      C271          C -0.6123780  0.8127520 -0.1814460    0.00000       Uiso       1.00
      O272          O -0.6123780  0.2298010  0.1304380    0.00000       Uiso       1.00
      O273          O -0.6123780  0.2702200 -0.1304240    0.00000       Uiso       1.00
      O274          O -0.6123780  0.1304410  0.1397850    0.00000       Uiso       1.00
      O275          O -0.6123780  0.3695790 -0.1397710    0.00000       Uiso       1.00
      O276          O -0.6123780  0.1397890  0.2297970    0.00000       Uiso       1.00
      O277          O -0.6123780  0.3602320 -0.2297830    0.00000       Uiso       1.00
      O278          O -0.6123780  0.2298010  0.6304380    0.00000       Uiso       1.00
      O279          O -0.6123780  0.2702200  0.3695760    0.00000       Uiso       1.00
      O280          O -0.6123780  0.1304410  0.6397850    0.00000       Uiso       1.00
      O281          O -0.6123780  0.3695790  0.3602280    0.00000       Uiso       1.00
      O282          O -0.6123780  0.1397890  0.7297970    0.00000       Uiso       1.00
      O283          O -0.6123780  0.3602320  0.2702160    0.00000       Uiso       1.00
      O284          O -0.6123780  0.7298010 -0.3695620    0.00000       Uiso       1.00
      O285          O -0.6123780  0.7702190 -0.6304240    0.00000       Uiso       1.00
      O286          O -0.6123780  0.6304410 -0.3602140    0.00000       Uiso       1.00
      O287          O -0.6123780  0.8695790 -0.6397710    0.00000       Uiso       1.00
      O288          O -0.6123780  0.6397880 -0.2702020    0.00000       Uiso       1.00
      O289          O -0.6123780  0.8602320 -0.7297830    0.00000       Uiso       1.00
      O290          O -0.6123780  0.7298010  0.1304380    0.00000       Uiso       1.00
      O291          O -0.6123780  0.7702190 -0.1304240    0.00000       Uiso       1.00
      O292          O -0.6123780  0.6304410  0.1397850    0.00000       Uiso       1.00
      O293          O -0.6123780  0.8695790 -0.1397710    0.00000       Uiso       1.00
      O294          O -0.6123780  0.6397880  0.2297970    0.00000       Uiso       1.00
      O295          O -0.6123780  0.8602319 -0.2297830    0.00000       Uiso       1.00
