data_Tp-Por-COF-AB
_audit_creation_date              0000-00-00
_audit_creation_method            'LanYouShi'
_symmetry_space_group_name_H-M    'P1'
_cell_length_a                    52.2000008
_cell_length_b                    52.2000008
_cell_length_c                    6.5000000
_cell_angle_alpha                 90.0000000
_cell_angle_beta                  90.0000000
_cell_angle_gamma                 120.0000000
loop_
_atom_site_label
_atom_site_type_symbol
_atom_site_fract_x
_atom_site_fract_y
_atom_site_fract_z
_atom_site_U_iso_or_equiv
_atom_site_adp_type
_atom_site_occupancy
        C1          C  0.9186920  0.9465730  0.0325680    0.00000       Uiso       1.00
        N2          N  0.6991080  0.8643110  0.1977470    0.00000       Uiso       1.00
        C3          C  0.7286800  0.8777161  0.1732540    0.00000       Uiso       1.00
        C4          C  0.7432580  0.8975700  0.3483090    0.00000       Uiso       1.00
        C5          C  0.7221140  0.8956200  0.4704790    0.00000       Uiso       1.00
        C6          C  0.8228670  0.9345840 -0.0219640    0.00000       Uiso       1.00
        C7          C  0.7919580  0.9191470 -0.0282530    0.00000       Uiso       1.00
        C8          C  0.9450060  0.9995040  0.0270910    0.00000       Uiso       1.00
        C9          C  0.9726840  0.0001950  0.0302940    0.00000       Uiso       1.00
       C10          C  0.4146670  0.7198300 -0.0245070    0.00000       Uiso       1.00
       N11          N  0.6342540  0.8017540 -0.1829590    0.00000       Uiso       1.00
       C12          C  0.6392170  0.7916340 -0.3605140    0.00000       Uiso       1.00
       C13          C  0.6046840  0.7883540 -0.1584590    0.00000       Uiso       1.00
       C14          C  0.5900880  0.7685560 -0.3336580    0.00000       Uiso       1.00
       C15          C  0.6112270  0.7705440 -0.4560970    0.00000       Uiso       1.00
       C16          C  0.5110310  0.7768150 -0.0577380    0.00000       Uiso       1.00
       C17          C  0.5419560  0.7920840 -0.0546200    0.00000       Uiso       1.00
       O18          O  0.4429620  0.7441519 -0.0331990    0.00000       Uiso       1.00
       C19          C  0.3881390  0.6669530  0.0018660    0.00000       Uiso       1.00
       C20          C  0.3605780  0.6663680 -0.0123410    0.00000       Uiso       1.00
       C21          C  0.4144460  0.6937310 -0.0038090    0.00000       Uiso       1.00
       C22          C  0.6387870  0.8466060  0.3693610    0.00000       Uiso       1.00
       C23          C  0.6046010  0.8139420  0.1685340    0.00000       Uiso       1.00
       C24          C  0.5904460  0.8213330  0.3189330    0.00000       Uiso       1.00
       C25          C  0.6121270  0.8420081  0.4453520    0.00000       Uiso       1.00
       C26          C  0.5104650  0.7318940  0.0454440    0.00000       Uiso       1.00
       C27          C  0.5413800  0.7472709  0.0511630    0.00000       Uiso       1.00
       C28          C  0.3885880  0.7207330 -0.0311480    0.00000       Uiso       1.00
       C29          C  0.3608060  0.6939860 -0.0175800    0.00000       Uiso       1.00
       C30          C  0.9188080  0.9727000  0.0271510    0.00000       Uiso       1.00
       N31          N  0.6992670  0.8369590 -0.1893610    0.00000       Uiso       1.00
       C32          C  0.6945690  0.8195750 -0.3553170    0.00000       Uiso       1.00
       C33          C  0.7287710  0.8521750 -0.1541530    0.00000       Uiso       1.00
       C34          C  0.7429230  0.8449980 -0.3059570    0.00000       Uiso       1.00
       C35          C  0.7212350  0.8243590 -0.4324880    0.00000       Uiso       1.00
       C36          C  0.8224570  0.8891790  0.0639740    0.00000       Uiso       1.00
       C37          C  0.7915360  0.8738540  0.0610700    0.00000       Uiso       1.00
       O38          O  0.8906780  0.9691411  0.0218710    0.00000       Uiso       1.00
       C39          C  0.9447720  0.9457400  0.0336850    0.00000       Uiso       1.00
       C40          C  0.6663030  0.8665870  0.4563820    0.00000       Uiso       1.00
       C41          C  0.6670430  0.7995940 -0.4422440    0.00000       Uiso       1.00
       C42          C  0.8382840  0.9196490  0.0231080    0.00000       Uiso       1.00
       B43          B  0.8728590  0.9368360  0.0274030    0.00000       Uiso       1.00
       C44          C  0.5900410  0.7935879  0.0054780    0.00000       Uiso       1.00
       C45          C  0.4951110  0.7466130 -0.0081310    0.00000       Uiso       1.00
       C46          C  0.5572800  0.7774351  0.0011860    0.00000       Uiso       1.00
       B47          B  0.4605000  0.7294830 -0.0120860    0.00000       Uiso       1.00
       C48          C  0.6941330  0.8744870  0.3750230    0.00000       Uiso       1.00
       O49          O  0.8904660  0.9221320  0.0349440    0.00000       Uiso       1.00
       N50          N  0.6340910  0.8290530  0.2043940    0.00000       Uiso       1.00
       O51          O  0.4425600  0.6972840  0.0073400    0.00000       Uiso       1.00
       C52          C  0.7433400  0.8724910  0.0092340    0.00000       Uiso       1.00
       C53          C  0.7761200  0.8887081  0.0133790    0.00000       Uiso       1.00
       C54          C  0.9725650  0.9726060  0.0311800    0.00000       Uiso       1.00
       H55          H  0.7667360  0.9110580  0.3774360    0.00000       Uiso       1.00
       H56          H  0.7253350  0.9071770  0.6148290    0.00000       Uiso       1.00
       H57          H  0.8346490  0.9581010 -0.0541650    0.00000       Uiso       1.00
       H58          H  0.7803300  0.9308940 -0.0648730    0.00000       Uiso       1.00
       H59          H  0.9426590  0.0188040  0.0225230    0.00000       Uiso       1.00
       H60          H  0.5666040  0.7550780 -0.3625710    0.00000       Uiso       1.00
       H61          H  0.6079990  0.7590370 -0.6006780    0.00000       Uiso       1.00
       H62          H  0.4996350  0.7885869 -0.1004070    0.00000       Uiso       1.00
       H63          H  0.5539890  0.8153329 -0.0948540    0.00000       Uiso       1.00
       H64          H  0.3901080  0.6475280  0.0208000    0.00000       Uiso       1.00
       H65          H  0.5669400  0.8127891  0.3364940    0.00000       Uiso       1.00
       H66          H  0.6087300  0.8525001  0.5779860    0.00000       Uiso       1.00
       H67          H  0.4986280  0.7085961  0.0845200    0.00000       Uiso       1.00
       H68          H  0.5529620  0.7357039  0.0942380    0.00000       Uiso       1.00
       H69          H  0.3909000  0.7422750 -0.0498030    0.00000       Uiso       1.00
       H70          H  0.6833630  0.8398030 -0.1154730    0.00000       Uiso       1.00
       H71          H  0.7664341  0.8536950 -0.3247500    0.00000       Uiso       1.00
       H72          H  0.7246330  0.8140330 -0.5660940    0.00000       Uiso       1.00
       H73          H  0.8339170  0.8772349  0.0998470    0.00000       Uiso       1.00
       H74          H  0.7795740  0.8503930  0.0949240    0.00000       Uiso       1.00
       H75          H  0.9422480  0.9240201  0.0378940    0.00000       Uiso       1.00
       H76          H  0.6660690  0.8776480  0.5969380    0.00000       Uiso       1.00
       H77          H  0.6672690  0.7886280 -0.5833100    0.00000       Uiso       1.00
       H78          H  0.6499570  0.8259780  0.1319890    0.00000       Uiso       1.00
       C79          C  0.0534270  0.9721190  0.0325680    0.00000       Uiso       1.00
       N80          N  0.1356890  0.8347970  0.1977470    0.00000       Uiso       1.00
       C81          C  0.1222840  0.8509640  0.1732540    0.00000       Uiso       1.00
       C82          C  0.1024300  0.8456880  0.3483090    0.00000       Uiso       1.00
       C83          C  0.1043800  0.8264940  0.4704790    0.00000       Uiso       1.00
       C84          C  0.0654160  0.8882830 -0.0219640    0.00000       Uiso       1.00
       C85          C  0.0808530  0.8728120 -0.0282530    0.00000       Uiso       1.00
       C86          C  0.0004960  0.9455019  0.0270910    0.00000       Uiso       1.00
       C87          C  0.9998050  0.9724880  0.0302940    0.00000       Uiso       1.00
       C88          C  0.2801700  0.6948370 -0.0245070    0.00000       Uiso       1.00
       N89          N  0.1982460  0.8324990 -0.1829590    0.00000       Uiso       1.00
       C90          C  0.2083660  0.8475830 -0.3605140    0.00000       Uiso       1.00
       C91          C  0.2116460  0.8163301 -0.1584590    0.00000       Uiso       1.00
       C92          C  0.2314440  0.8215320 -0.3336580    0.00000       Uiso       1.00
       C93          C  0.2294560  0.8406829 -0.4560970    0.00000       Uiso       1.00
       C94          C  0.2231850  0.7342160 -0.0577380    0.00000       Uiso       1.00
       C95          C  0.2079160  0.7498710 -0.0546200    0.00000       Uiso       1.00
       O96          O  0.2558480  0.6988100 -0.0331990    0.00000       Uiso       1.00
       C97          C  0.3330470  0.7211870  0.0018660    0.00000       Uiso       1.00
       C98          C  0.3336320  0.6942100 -0.0123410    0.00000       Uiso       1.00
       C99          C  0.3062690  0.7207150 -0.0038090    0.00000       Uiso       1.00
      C100          C  0.1533940  0.7921820  0.3693610    0.00000       Uiso       1.00
      C101          C  0.1860570  0.7906590  0.1685340    0.00000       Uiso       1.00
      C102          C  0.1786670  0.7691130  0.3189330    0.00000       Uiso       1.00
      C103          C  0.1579920  0.7701191  0.4453520    0.00000       Uiso       1.00
      C104          C  0.2681060  0.7785710  0.0454440    0.00000       Uiso       1.00
      C105          C  0.2527290  0.7941090  0.0511630    0.00000       Uiso       1.00
      C106          C  0.2792670  0.6678540 -0.0311480    0.00000       Uiso       1.00
      C107          C  0.3060140  0.6668200 -0.0175800    0.00000       Uiso       1.00
      C108          C  0.0273000  0.9461080  0.0271510    0.00000       Uiso       1.00
      N109          N  0.1630410  0.8623081 -0.1893610    0.00000       Uiso       1.00
      C110          C  0.1804250  0.8749931 -0.3553170    0.00000       Uiso       1.00
      C111          C  0.1478250  0.8765970 -0.1541530    0.00000       Uiso       1.00
      C112          C  0.1550020  0.8979250 -0.3059570    0.00000       Uiso       1.00
      C113          C  0.1756410  0.8968760 -0.4324880    0.00000       Uiso       1.00
      C114          C  0.1108210  0.9332780  0.0639740    0.00000       Uiso       1.00
      C115          C  0.1261460  0.9176820  0.0610700    0.00000       Uiso       1.00
      O116          O  0.0308590  0.9215369  0.0218710    0.00000       Uiso       1.00
      C117          C  0.0542600  0.9990321  0.0336850    0.00000       Uiso       1.00
      C118          C  0.1334130  0.7997170  0.4563820    0.00000       Uiso       1.00
      C119          C  0.2004060  0.8674500 -0.4422440    0.00000       Uiso       1.00
      C120          C  0.0803510  0.9186350  0.0231080    0.00000       Uiso       1.00
      B121          B  0.0631640  0.9360231  0.0274030    0.00000       Uiso       1.00
      C122          C  0.2064120  0.7964531  0.0054780    0.00000       Uiso       1.00
      C123          C  0.2533870  0.7484980 -0.0081310    0.00000       Uiso       1.00
      C124          C  0.2225650  0.7798451  0.0011860    0.00000       Uiso       1.00
      B125          B  0.2705170  0.7310169 -0.0120860    0.00000       Uiso       1.00
      C126          C  0.1255130  0.8196460  0.3750230    0.00000       Uiso       1.00
      O127          O  0.0778680  0.9683340  0.0349440    0.00000       Uiso       1.00
      N128          N  0.1709470  0.8050380  0.2043940    0.00000       Uiso       1.00
      O129          O  0.3027160  0.7452770  0.0073400    0.00000       Uiso       1.00
      C130          C  0.1275090  0.8708491  0.0092340    0.00000       Uiso       1.00
      C131          C  0.1112920  0.8874120  0.0133790    0.00000       Uiso       1.00
      C132          C  0.0273940  0.9999590  0.0311800    0.00000       Uiso       1.00
      H133          H  0.0889420  0.8556780  0.3774360    0.00000       Uiso       1.00
      H134          H  0.0928230  0.8181580  0.6148290    0.00000       Uiso       1.00
      H135          H  0.0418990  0.8765480 -0.0541650    0.00000       Uiso       1.00
      H136          H  0.0691060  0.8494360 -0.0648730    0.00000       Uiso       1.00
      H137          H  0.9811960  0.9238549  0.0225230    0.00000       Uiso       1.00
      H138          H  0.2449220  0.8115260 -0.3625710    0.00000       Uiso       1.00
      H139          H  0.2409630  0.8489620 -0.6006780    0.00000       Uiso       1.00
      H140          H  0.2114130  0.7110481 -0.1004070    0.00000       Uiso       1.00
      H141          H  0.1846670  0.7386550 -0.0948540    0.00000       Uiso       1.00
      H142          H  0.3524720  0.7425790  0.0208000    0.00000       Uiso       1.00
      H143          H  0.1872110  0.7541510  0.3364940    0.00000       Uiso       1.00
      H144          H  0.1475000  0.7562300  0.5779860    0.00000       Uiso       1.00
      H145          H  0.2914050  0.7900320  0.0845200    0.00000       Uiso       1.00
      H146          H  0.2642960  0.8172580  0.0942380    0.00000       Uiso       1.00
      H147          H  0.2577250  0.6486240 -0.0498030    0.00000       Uiso       1.00
      H148          H  0.1601970  0.8435590 -0.1154730    0.00000       Uiso       1.00
      H149          H  0.1463050  0.9127390 -0.3247500    0.00000       Uiso       1.00
      H150          H  0.1859670  0.9106010 -0.5660940    0.00000       Uiso       1.00
      H151          H  0.1227650  0.9566830  0.0998470    0.00000       Uiso       1.00
      H152          H  0.1496070  0.9291809  0.0949240    0.00000       Uiso       1.00
      H153          H  0.0759800  0.0182280  0.0378940    0.00000       Uiso       1.00
      H154          H  0.1223520  0.7884210  0.5969380    0.00000       Uiso       1.00
      H155          H  0.2113720  0.8786409 -0.5833100    0.00000       Uiso       1.00
      H156          H  0.1740220  0.8239790  0.1319890    0.00000       Uiso       1.00
      C157          C  0.0278810  0.0813080  0.0325680    0.00000       Uiso       1.00
      N158          N  0.1652030  0.3008920  0.1977470    0.00000       Uiso       1.00
      C159          C  0.1490360  0.2713200  0.1732540    0.00000       Uiso       1.00
      C160          C  0.1543120  0.2567420  0.3483090    0.00000       Uiso       1.00
      C161          C  0.1735060  0.2778860  0.4704790    0.00000       Uiso       1.00
      C162          C  0.1117170  0.1771330 -0.0219640    0.00000       Uiso       1.00
      C163          C  0.1271880  0.2080420 -0.0282530    0.00000       Uiso       1.00
      C164          C  0.0544980  0.0549940  0.0270910    0.00000       Uiso       1.00
      C165          C  0.0275120  0.0273160  0.0302940    0.00000       Uiso       1.00
      C166          C  0.3051630  0.5853330 -0.0245070    0.00000       Uiso       1.00
      N167          N  0.1675010  0.3657460 -0.1829590    0.00000       Uiso       1.00
      C168          C  0.1524170  0.3607830 -0.3605140    0.00000       Uiso       1.00
      C169          C  0.1836700  0.3953160 -0.1584590    0.00000       Uiso       1.00
      C170          C  0.1784680  0.4099120 -0.3336580    0.00000       Uiso       1.00
      C171          C  0.1593170  0.3887730 -0.4560970    0.00000       Uiso       1.00
      C172          C  0.2657840  0.4889690 -0.0577380    0.00000       Uiso       1.00
      C173          C  0.2501290  0.4580440 -0.0546200    0.00000       Uiso       1.00
      O174          O  0.3011900  0.5570380 -0.0331990    0.00000       Uiso       1.00
      C175          C  0.2788130  0.6118610  0.0018660    0.00000       Uiso       1.00
      C176          C  0.3057900  0.6394220 -0.0123410    0.00000       Uiso       1.00
      C177          C  0.2792850  0.5855540 -0.0038090    0.00000       Uiso       1.00
      C178          C  0.2078180  0.3612130  0.3693610    0.00000       Uiso       1.00
      C179          C  0.2093410  0.3953990  0.1685340    0.00000       Uiso       1.00
      C180          C  0.2308870  0.4095540  0.3189330    0.00000       Uiso       1.00
      C181          C  0.2298810  0.3878730  0.4453520    0.00000       Uiso       1.00
      C182          C  0.2214290  0.4895350  0.0454440    0.00000       Uiso       1.00
      C183          C  0.2058910  0.4586190  0.0511630    0.00000       Uiso       1.00
      C184          C  0.3321460  0.6114120 -0.0311480    0.00000       Uiso       1.00
      C185          C  0.3331800  0.6391940 -0.0175800    0.00000       Uiso       1.00
      C186          C  0.0538930  0.0811930  0.0271510    0.00000       Uiso       1.00
      N187          N  0.1376920  0.3007330 -0.1893610    0.00000       Uiso       1.00
      C188          C  0.1250070  0.3054310 -0.3553170    0.00000       Uiso       1.00
      C189          C  0.1234030  0.2712290 -0.1541530    0.00000       Uiso       1.00
      C190          C  0.1020750  0.2570770 -0.3059570    0.00000       Uiso       1.00
      C191          C  0.1031240  0.2787650 -0.4324880    0.00000       Uiso       1.00
      C192          C  0.0667220  0.1775430  0.0639740    0.00000       Uiso       1.00
      C193          C  0.0823180  0.2084640  0.0610700    0.00000       Uiso       1.00
      O194          O  0.0784630  0.1093210  0.0218710    0.00000       Uiso       1.00
      C195          C  0.0009680  0.0552280  0.0336850    0.00000       Uiso       1.00
      C196          C  0.2002830  0.3336970  0.4563820    0.00000       Uiso       1.00
      C197          C  0.1325500  0.3329570 -0.4422440    0.00000       Uiso       1.00
      C198          C  0.0813640  0.1617160  0.0231080    0.00000       Uiso       1.00
      B199          B  0.0639770  0.1271410  0.0274030    0.00000       Uiso       1.00
      C200          C  0.2035470  0.4099590  0.0054780    0.00000       Uiso       1.00
      C201          C  0.2515020  0.5048890 -0.0081310    0.00000       Uiso       1.00
      C202          C  0.2201550  0.4427200  0.0011860    0.00000       Uiso       1.00
      B203          B  0.2689830  0.5395000 -0.0120860    0.00000       Uiso       1.00
      C204          C  0.1803540  0.3058670  0.3750230    0.00000       Uiso       1.00
      O205          O  0.0316660  0.1095340  0.0349440    0.00000       Uiso       1.00
      N206          N  0.1949620  0.3659090  0.2043940    0.00000       Uiso       1.00
      O207          O  0.2547230  0.5574400  0.0073400    0.00000       Uiso       1.00
      C208          C  0.1291510  0.2566600  0.0092340    0.00000       Uiso       1.00
      C209          C  0.1125880  0.2238800  0.0133790    0.00000       Uiso       1.00
      C210          C  0.0000410  0.0274350  0.0311800    0.00000       Uiso       1.00
      H211          H  0.1443220  0.2332640  0.3774360    0.00000       Uiso       1.00
      H212          H  0.1818420  0.2746650  0.6148290    0.00000       Uiso       1.00
      H213          H  0.1234520  0.1653510 -0.0541650    0.00000       Uiso       1.00
      H214          H  0.1505640  0.2196700 -0.0648730    0.00000       Uiso       1.00
      H215          H  0.0761450  0.0573410  0.0225230    0.00000       Uiso       1.00
      H216          H  0.1884740  0.4333960 -0.3625710    0.00000       Uiso       1.00
      H217          H  0.1510380  0.3920010 -0.6006780    0.00000       Uiso       1.00
      H218          H  0.2889520  0.5003650 -0.1004070    0.00000       Uiso       1.00
      H219          H  0.2613450  0.4460110 -0.0948540    0.00000       Uiso       1.00
      H220          H  0.2574210  0.6098920  0.0208000    0.00000       Uiso       1.00
      H221          H  0.2458490  0.4330600  0.3364940    0.00000       Uiso       1.00
      H222          H  0.2437700  0.3912700  0.5779860    0.00000       Uiso       1.00
      H223          H  0.2099680  0.5013720  0.0845200    0.00000       Uiso       1.00
      H224          H  0.1827420  0.4470380  0.0942380    0.00000       Uiso       1.00
      H225          H  0.3513760  0.6091000 -0.0498030    0.00000       Uiso       1.00
      H226          H  0.1564410  0.3166370 -0.1154730    0.00000       Uiso       1.00
      H227          H  0.0872610  0.2335660 -0.3247500    0.00000       Uiso       1.00
      H228          H  0.0893990  0.2753670 -0.5660940    0.00000       Uiso       1.00
      H229          H  0.0433170  0.1660830  0.0998470    0.00000       Uiso       1.00
      H230          H  0.0708190  0.2204260  0.0949240    0.00000       Uiso       1.00
      H231          H  0.9817720  0.0577520  0.0378940    0.00000       Uiso       1.00
      H232          H  0.2115790  0.3339310  0.5969380    0.00000       Uiso       1.00
      H233          H  0.1213590  0.3327310 -0.5833100    0.00000       Uiso       1.00
      H234          H  0.1760210  0.3500430  0.1319890    0.00000       Uiso       1.00
      C235          C  0.0813080  0.0534270  0.5325680    0.00000       Uiso       1.00
      N236          N  0.3008920  0.1356890  0.6977470    0.00000       Uiso       1.00
      C237          C  0.2713200  0.1222840  0.6732540    0.00000       Uiso       1.00
      C238          C  0.2567420  0.1024300  0.8483090    0.00000       Uiso       1.00
      C239          C  0.2778860  0.1043800  0.9704780    0.00000       Uiso       1.00
      C240          C  0.1771330  0.0654160  0.4780360    0.00000       Uiso       1.00
      C241          C  0.2080420  0.0808530  0.4717470    0.00000       Uiso       1.00
      C242          C  0.0549940  0.0004960  0.5270910    0.00000       Uiso       1.00
      C243          C  0.0273160  0.9998050  0.5302940    0.00000       Uiso       1.00
      C244          C  0.5853330  0.2801700  0.4754930    0.00000       Uiso       1.00
      N245          N  0.3657460  0.1982460  0.3170410    0.00000       Uiso       1.00
      C246          C  0.3607830  0.2083660  0.1394860    0.00000       Uiso       1.00
      C247          C  0.3953160  0.2116460  0.3415410    0.00000       Uiso       1.00
      C248          C  0.4099120  0.2314440  0.1663420    0.00000       Uiso       1.00
      C249          C  0.3887730  0.2294560  0.0439030    0.00000       Uiso       1.00
      C250          C  0.4889690  0.2231850  0.4422620    0.00000       Uiso       1.00
      C251          C  0.4580440  0.2079160  0.4453800    0.00000       Uiso       1.00
      O252          O  0.5570380  0.2558480  0.4668010    0.00000       Uiso       1.00
      C253          C  0.6118610  0.3330470  0.5018660    0.00000       Uiso       1.00
      C254          C  0.6394220  0.3336320  0.4876590    0.00000       Uiso       1.00
      C255          C  0.5855540  0.3062690  0.4961920    0.00000       Uiso       1.00
      C256          C  0.3612130  0.1533950  0.8693610    0.00000       Uiso       1.00
      C257          C  0.3953990  0.1860580  0.6685340    0.00000       Uiso       1.00
      C258          C  0.4095540  0.1786670  0.8189331    0.00000       Uiso       1.00
      C259          C  0.3878730  0.1579920  0.9453520    0.00000       Uiso       1.00
      C260          C  0.4895350  0.2681060  0.5454440    0.00000       Uiso       1.00
      C261          C  0.4586200  0.2527290  0.5511630    0.00000       Uiso       1.00
      C262          C  0.6114120  0.2792670  0.4688520    0.00000       Uiso       1.00
      C263          C  0.6391940  0.3060140  0.4824200    0.00000       Uiso       1.00
      C264          C  0.0811930  0.0273000  0.5271510    0.00000       Uiso       1.00
      N265          N  0.3007330  0.1630410  0.3106390    0.00000       Uiso       1.00
      C266          C  0.3054310  0.1804250  0.1446830    0.00000       Uiso       1.00
      C267          C  0.2712290  0.1478250  0.3458470    0.00000       Uiso       1.00
      C268          C  0.2570770  0.1550020  0.1940430    0.00000       Uiso       1.00
      C269          C  0.2787650  0.1756410  0.0675120    0.00000       Uiso       1.00
      C270          C  0.1775430  0.1108210  0.5639740    0.00000       Uiso       1.00
      C271          C  0.2084640  0.1261460  0.5610700    0.00000       Uiso       1.00
      O272          O  0.1093220  0.0308590  0.5218710    0.00000       Uiso       1.00
      C273          C  0.0552280  0.0542600  0.5336850    0.00000       Uiso       1.00
      C274          C  0.3336970  0.1334130  0.9563819    0.00000       Uiso       1.00
      C275          C  0.3329570  0.2004060  0.0577560    0.00000       Uiso       1.00
      C276          C  0.1617160  0.0803510  0.5231080    0.00000       Uiso       1.00
      B277          B  0.1271410  0.0631640  0.5274030    0.00000       Uiso       1.00
      C278          C  0.4099590  0.2064120  0.5054780    0.00000       Uiso       1.00
      C279          C  0.5048890  0.2533870  0.4918690    0.00000       Uiso       1.00
      C280          C  0.4427200  0.2225650  0.5011860    0.00000       Uiso       1.00
      B281          B  0.5395000  0.2705170  0.4879140    0.00000       Uiso       1.00
      C282          C  0.3058670  0.1255130  0.8750230    0.00000       Uiso       1.00
      O283          O  0.1095340  0.0778680  0.5349440    0.00000       Uiso       1.00
      N284          N  0.3659090  0.1709470  0.7043940    0.00000       Uiso       1.00
      O285          O  0.5574400  0.3027160  0.5073400    0.00000       Uiso       1.00
      C286          C  0.2566600  0.1275090  0.5092340    0.00000       Uiso       1.00
      C287          C  0.2238800  0.1112920  0.5133790    0.00000       Uiso       1.00
      C288          C  0.0274350  0.0273940  0.5311800    0.00000       Uiso       1.00
      H289          H  0.2332640  0.0889420  0.8774360    0.00000       Uiso       1.00
      H290          H  0.2746650  0.0928230  1.1148289    0.00000       Uiso       1.00
      H291          H  0.1653510  0.0418990  0.4458350    0.00000       Uiso       1.00
      H292          H  0.2196700  0.0691060  0.4351270    0.00000       Uiso       1.00
      H293          H  0.0573410  0.9811960  0.5225230    0.00000       Uiso       1.00
      H294          H  0.4333960  0.2449220  0.1374290    0.00000       Uiso       1.00
      H295          H  0.3920010  0.2409630 -0.1006780    0.00000       Uiso       1.00
      H296          H  0.5003650  0.2114130  0.3995930    0.00000       Uiso       1.00
      H297          H  0.4460110  0.1846660  0.4051460    0.00000       Uiso       1.00
      H298          H  0.6098920  0.3524720  0.5208000    0.00000       Uiso       1.00
      H299          H  0.4330600  0.1872110  0.8364940    0.00000       Uiso       1.00
      H300          H  0.3912700  0.1475000  1.0779860    0.00000       Uiso       1.00
      H301          H  0.5013720  0.2914050  0.5845200    0.00000       Uiso       1.00
      H302          H  0.4470380  0.2642960  0.5942380    0.00000       Uiso       1.00
      H303          H  0.6091000  0.2577250  0.4501970    0.00000       Uiso       1.00
      H304          H  0.3166370  0.1601970  0.3845280    0.00000       Uiso       1.00
      H305          H  0.2335660  0.1463050  0.1752500    0.00000       Uiso       1.00
      H306          H  0.2753670  0.1859670 -0.0660930    0.00000       Uiso       1.00
      H307          H  0.1660830  0.1227650  0.5998470    0.00000       Uiso       1.00
      H308          H  0.2204260  0.1496070  0.5949240    0.00000       Uiso       1.00
      H309          H  0.0577520  0.0759800  0.5378940    0.00000       Uiso       1.00
      H310          H  0.3339310  0.1223520  1.0969380    0.00000       Uiso       1.00
      H311          H  0.3327310  0.2113720 -0.0833100    0.00000       Uiso       1.00
      H312          H  0.3500430  0.1740220  0.6319889    0.00000       Uiso       1.00
      C313          C  0.9465730  0.0278810  0.5325680    0.00000       Uiso       1.00
      N314          N  0.8643110  0.1652030  0.6977470    0.00000       Uiso       1.00
      C315          C  0.8777160  0.1490360  0.6732540    0.00000       Uiso       1.00
      C316          C  0.8975700  0.1543120  0.8483090    0.00000       Uiso       1.00
      C317          C  0.8956200  0.1735060  0.9704780    0.00000       Uiso       1.00
      C318          C  0.9345840  0.1117170  0.4780360    0.00000       Uiso       1.00
      C319          C  0.9191470  0.1271880  0.4717470    0.00000       Uiso       1.00
      C320          C  0.9995040  0.0544980  0.5270910    0.00000       Uiso       1.00
      C321          C  0.0001950  0.0275120  0.5302940    0.00000       Uiso       1.00
      C322          C  0.7198300  0.3051630  0.4754930    0.00000       Uiso       1.00
      N323          N  0.8017540  0.1675010  0.3170410    0.00000       Uiso       1.00
      C324          C  0.7916340  0.1524170  0.1394860    0.00000       Uiso       1.00
      C325          C  0.7883540  0.1836700  0.3415410    0.00000       Uiso       1.00
      C326          C  0.7685560  0.1784680  0.1663420    0.00000       Uiso       1.00
      C327          C  0.7705440  0.1593170  0.0439030    0.00000       Uiso       1.00
      C328          C  0.7768150  0.2657840  0.4422620    0.00000       Uiso       1.00
      C329          C  0.7920840  0.2501290  0.4453800    0.00000       Uiso       1.00
      O330          O  0.7441520  0.3011900  0.4668010    0.00000       Uiso       1.00
      C331          C  0.6669530  0.2788130  0.5018660    0.00000       Uiso       1.00
      C332          C  0.6663680  0.3057900  0.4876590    0.00000       Uiso       1.00
      C333          C  0.6937310  0.2792850  0.4961920    0.00000       Uiso       1.00
      C334          C  0.8466049  0.2078180  0.8693610    0.00000       Uiso       1.00
      C335          C  0.8139421  0.2093410  0.6685340    0.00000       Uiso       1.00
      C336          C  0.8213330  0.2308870  0.8189331    0.00000       Uiso       1.00
      C337          C  0.8420080  0.2298810  0.9453520    0.00000       Uiso       1.00
      C338          C  0.7318940  0.2214290  0.5454440    0.00000       Uiso       1.00
      C339          C  0.7472710  0.2058910  0.5511630    0.00000       Uiso       1.00
      C340          C  0.7207330  0.3321460  0.4688520    0.00000       Uiso       1.00
      C341          C  0.6939860  0.3331800  0.4824200    0.00000       Uiso       1.00
      C342          C  0.9727000  0.0538930  0.5271510    0.00000       Uiso       1.00
      N343          N  0.8369591  0.1376920  0.3106390    0.00000       Uiso       1.00
      C344          C  0.8195750  0.1250070  0.1446830    0.00000       Uiso       1.00
      C345          C  0.8521750  0.1234030  0.3458470    0.00000       Uiso       1.00
      C346          C  0.8449980  0.1020750  0.1940430    0.00000       Uiso       1.00
      C347          C  0.8243590  0.1031240  0.0675120    0.00000       Uiso       1.00
      C348          C  0.8891790  0.0667220  0.5639740    0.00000       Uiso       1.00
      C349          C  0.8738540  0.0823180  0.5610700    0.00000       Uiso       1.00
      O350          O  0.9691409  0.0784630  0.5218710    0.00000       Uiso       1.00
      C351          C  0.9457399  0.0009680  0.5336850    0.00000       Uiso       1.00
      C352          C  0.8665870  0.2002830  0.9563819    0.00000       Uiso       1.00
      C353          C  0.7995940  0.1325500  0.0577560    0.00000       Uiso       1.00
      C354          C  0.9196491  0.0813640  0.5231080    0.00000       Uiso       1.00
      B355          B  0.9368360  0.0639770  0.5274030    0.00000       Uiso       1.00
      C356          C  0.7935880  0.2035470  0.5054780    0.00000       Uiso       1.00
      C357          C  0.7466130  0.2515020  0.4918690    0.00000       Uiso       1.00
      C358          C  0.7774350  0.2201550  0.5011860    0.00000       Uiso       1.00
      B359          B  0.7294830  0.2689830  0.4879140    0.00000       Uiso       1.00
      C360          C  0.8744870  0.1803540  0.8750230    0.00000       Uiso       1.00
      O361          O  0.9221321  0.0316660  0.5349440    0.00000       Uiso       1.00
      N362          N  0.8290530  0.1949620  0.7043940    0.00000       Uiso       1.00
      O363          O  0.6972840  0.2547230  0.5073400    0.00000       Uiso       1.00
      C364          C  0.8724910  0.1291510  0.5092340    0.00000       Uiso       1.00
      C365          C  0.8887080  0.1125880  0.5133790    0.00000       Uiso       1.00
      C366          C  0.9726060  0.0000410  0.5311800    0.00000       Uiso       1.00
      H367          H  0.9110580  0.1443220  0.8774360    0.00000       Uiso       1.00
      H368          H  0.9071770  0.1818420  1.1148289    0.00000       Uiso       1.00
      H369          H  0.9581010  0.1234520  0.4458350    0.00000       Uiso       1.00
      H370          H  0.9308940  0.1505640  0.4351270    0.00000       Uiso       1.00
      H371          H  0.0188040  0.0761450  0.5225230    0.00000       Uiso       1.00
      H372          H  0.7550780  0.1884740  0.1374290    0.00000       Uiso       1.00
      H373          H  0.7590370  0.1510380 -0.1006780    0.00000       Uiso       1.00
      H374          H  0.7885870  0.2889520  0.3995930    0.00000       Uiso       1.00
      H375          H  0.8153340  0.2613450  0.4051460    0.00000       Uiso       1.00
      H376          H  0.6475280  0.2574210  0.5208000    0.00000       Uiso       1.00
      H377          H  0.8127890  0.2458490  0.8364940    0.00000       Uiso       1.00
      H378          H  0.8525000  0.2437700  1.0779860    0.00000       Uiso       1.00
      H379          H  0.7085960  0.2099680  0.5845200    0.00000       Uiso       1.00
      H380          H  0.7357040  0.1827420  0.5942380    0.00000       Uiso       1.00
      H381          H  0.7422750  0.3513760  0.4501970    0.00000       Uiso       1.00
      H382          H  0.8398029  0.1564410  0.3845280    0.00000       Uiso       1.00
      H383          H  0.8536950  0.0872610  0.1752500    0.00000       Uiso       1.00
      H384          H  0.8140330  0.0893990 -0.0660930    0.00000       Uiso       1.00
      H385          H  0.8772350  0.0433170  0.5998470    0.00000       Uiso       1.00
      H386          H  0.8503931  0.0708190  0.5949240    0.00000       Uiso       1.00
      H387          H  0.9240200  0.9817720  0.5378940    0.00000       Uiso       1.00
      H388          H  0.8776480  0.2115790  1.0969380    0.00000       Uiso       1.00
      H389          H  0.7886280  0.1213590 -0.0833100    0.00000       Uiso       1.00
      H390          H  0.8259780  0.1760210  0.6319889    0.00000       Uiso       1.00
      C391          C  0.9721190  0.9186919  0.5325680    0.00000       Uiso       1.00
      N392          N  0.8347970  0.6991080  0.6977470    0.00000       Uiso       1.00
      C393          C  0.8509630  0.7286800  0.6732540    0.00000       Uiso       1.00
      C394          C  0.8456880  0.7432580  0.8483090    0.00000       Uiso       1.00
      C395          C  0.8264940  0.7221140  0.9704780    0.00000       Uiso       1.00
      C396          C  0.8882830  0.8228670  0.4780360    0.00000       Uiso       1.00
      C397          C  0.8728120  0.7919580  0.4717470    0.00000       Uiso       1.00
      C398          C  0.9455020  0.9450060  0.5270910    0.00000       Uiso       1.00
      C399          C  0.9724880  0.9726841  0.5302940    0.00000       Uiso       1.00
      C400          C  0.6948370  0.4146670  0.4754930    0.00000       Uiso       1.00
      N401          N  0.8324990  0.6342540  0.3170410    0.00000       Uiso       1.00
      C402          C  0.8475830  0.6392170  0.1394860    0.00000       Uiso       1.00
      C403          C  0.8163300  0.6046840  0.3415410    0.00000       Uiso       1.00
      C404          C  0.8215320  0.5900880  0.1663420    0.00000       Uiso       1.00
      C405          C  0.8406830  0.6112270  0.0439030    0.00000       Uiso       1.00
      C406          C  0.7342160  0.5110310  0.4422620    0.00000       Uiso       1.00
      C407          C  0.7498710  0.5419560  0.4453800    0.00000       Uiso       1.00
      O408          O  0.6988100  0.4429620  0.4668010    0.00000       Uiso       1.00
      C409          C  0.7211870  0.3881390  0.5018660    0.00000       Uiso       1.00
      C410          C  0.6942100  0.3605780  0.4876590    0.00000       Uiso       1.00
      C411          C  0.7207150  0.4144460  0.4961920    0.00000       Uiso       1.00
      C412          C  0.7921820  0.6387870  0.8693610    0.00000       Uiso       1.00
      C413          C  0.7906590  0.6046010  0.6685340    0.00000       Uiso       1.00
      C414          C  0.7691130  0.5904460  0.8189331    0.00000       Uiso       1.00
      C415          C  0.7701190  0.6121270  0.9453520    0.00000       Uiso       1.00
      C416          C  0.7785710  0.5104650  0.5454440    0.00000       Uiso       1.00
      C417          C  0.7941090  0.5413810  0.5511630    0.00000       Uiso       1.00
      C418          C  0.6678540  0.3885880  0.4688520    0.00000       Uiso       1.00
      C419          C  0.6668200  0.3608060  0.4824200    0.00000       Uiso       1.00
      C420          C  0.9461070  0.9188070  0.5271510    0.00000       Uiso       1.00
      N421          N  0.8623080  0.6992670  0.3106390    0.00000       Uiso       1.00
      C422          C  0.8749930  0.6945690  0.1446830    0.00000       Uiso       1.00
      C423          C  0.8765970  0.7287710  0.3458470    0.00000       Uiso       1.00
      C424          C  0.8979250  0.7429230  0.1940430    0.00000       Uiso       1.00
      C425          C  0.8968759  0.7212349  0.0675120    0.00000       Uiso       1.00
      C426          C  0.9332780  0.8224570  0.5639740    0.00000       Uiso       1.00
      C427          C  0.9176820  0.7915360  0.5610700    0.00000       Uiso       1.00
      O428          O  0.9215370  0.8906780  0.5218710    0.00000       Uiso       1.00
      C429          C  0.9990320  0.9447720  0.5336850    0.00000       Uiso       1.00
      C430          C  0.7997170  0.6663030  0.9563819    0.00000       Uiso       1.00
      C431          C  0.8674500  0.6670430  0.0577560    0.00000       Uiso       1.00
      C432          C  0.9186350  0.8382840  0.5231080    0.00000       Uiso       1.00
      B433          B  0.9360230  0.8728590  0.5274030    0.00000       Uiso       1.00
      C434          C  0.7964530  0.5900410  0.5054780    0.00000       Uiso       1.00
      C435          C  0.7484980  0.4951110  0.4918690    0.00000       Uiso       1.00
      C436          C  0.7798450  0.5572800  0.5011860    0.00000       Uiso       1.00
      B437          B  0.7310170  0.4605000  0.4879140    0.00000       Uiso       1.00
      C438          C  0.8196460  0.6941330  0.8750230    0.00000       Uiso       1.00
      O439          O  0.9683340  0.8904660  0.5349440    0.00000       Uiso       1.00
      N440          N  0.8050380  0.6340910  0.7043940    0.00000       Uiso       1.00
      O441          O  0.7452770  0.4425600  0.5073400    0.00000       Uiso       1.00
      C442          C  0.8708490  0.7433400  0.5092340    0.00000       Uiso       1.00
      C443          C  0.8874120  0.7761200  0.5133790    0.00000       Uiso       1.00
      C444          C  0.9999590  0.9725650  0.5311800    0.00000       Uiso       1.00
      H445          H  0.8556780  0.7667359  0.8774360    0.00000       Uiso       1.00
      H446          H  0.8181580  0.7253350  1.1148289    0.00000       Uiso       1.00
      H447          H  0.8765480  0.8346490  0.4458350    0.00000       Uiso       1.00
      H448          H  0.8494360  0.7803300  0.4351270    0.00000       Uiso       1.00
      H449          H  0.9238550  0.9426591  0.5225230    0.00000       Uiso       1.00
      H450          H  0.8115260  0.5666040  0.1374290    0.00000       Uiso       1.00
      H451          H  0.8489620  0.6079990 -0.1006780    0.00000       Uiso       1.00
      H452          H  0.7110480  0.4996350  0.3995930    0.00000       Uiso       1.00
      H453          H  0.7386550  0.5539890  0.4051460    0.00000       Uiso       1.00
      H454          H  0.7425790  0.3901080  0.5208000    0.00000       Uiso       1.00
      H455          H  0.7541510  0.5669400  0.8364940    0.00000       Uiso       1.00
      H456          H  0.7562300  0.6087300  1.0779860    0.00000       Uiso       1.00
      H457          H  0.7900320  0.4986280  0.5845200    0.00000       Uiso       1.00
      H458          H  0.8172580  0.5529620  0.5942380    0.00000       Uiso       1.00
      H459          H  0.6486240  0.3909000  0.4501970    0.00000       Uiso       1.00
      H460          H  0.8435590  0.6833630  0.3845280    0.00000       Uiso       1.00
      H461          H  0.9127390  0.7664340  0.1752500    0.00000       Uiso       1.00
      H462          H  0.9106010  0.7246330 -0.0660930    0.00000       Uiso       1.00
      H463          H  0.9566830  0.8339171  0.5998470    0.00000       Uiso       1.00
      H464          H  0.9291810  0.7795740  0.5949240    0.00000       Uiso       1.00
      H465          H  0.0182280  0.9422480  0.5378940    0.00000       Uiso       1.00
      H466          H  0.7884210  0.6660690  1.0969380    0.00000       Uiso       1.00
      H467          H  0.8786410  0.6672690 -0.0833100    0.00000       Uiso       1.00
      H468          H  0.8239790  0.6499570  0.6319889    0.00000       Uiso       1.00
