data_TPT-COF-1
_audit_creation_date              0000-00-00
_audit_creation_method            'LanYouShi'
_symmetry_space_group_name_H-M    'P1'
_cell_length_a                    28.8701992
_cell_length_b                    28.9015007
_cell_length_c                    3.4000001
_cell_angle_alpha                 90.0000000
_cell_angle_beta                  90.0000000
_cell_angle_gamma                 119.9145966
loop_
_atom_site_label
_atom_site_type_symbol
_atom_site_fract_x
_atom_site_fract_y
_atom_site_fract_z
_atom_site_U_iso_or_equiv
_atom_site_adp_type
_atom_site_occupancy
        C1          C  0.5029160  0.4539340  1.4705880    0.00000       Uiso       1.00
        N2          N  0.5483070  0.5025650  1.4705880    0.00000       Uiso       1.00
        C3          C  0.5460270  0.5484900  1.4705880    0.00000       Uiso       1.00
        N4          N  0.4973170  0.5452100  1.4705880    0.00000       Uiso       1.00
        C5          C  0.4513970  0.4971370  1.4705880    0.00000       Uiso       1.00
        N6          N  0.4547560  0.4518010  1.4705880    0.00000       Uiso       1.00
        O7          O  0.5083480  0.4080040  1.4705880    0.00000       Uiso       1.00
        O8          O  0.5918180  0.5998350  1.4705880    0.00000       Uiso       1.00
        O9          O  0.4000040  0.4916840  1.4705880    0.00000       Uiso       1.00
       C10          C  0.4659280  0.3542510  1.4705880    0.00000       Uiso       1.00
       C11          C  0.6457390  0.6115360  1.4705880    0.00000       Uiso       1.00
       C12          C  0.3884300  0.5339840  1.4705880    0.00000       Uiso       1.00
       C13          C  0.4264210  0.5897200  1.4705880    0.00000       Uiso       1.00
       C14          C  0.4091950  0.6276020  1.4705880    0.00000       Uiso       1.00
       C15          C  0.3543650  0.6114800  1.4705880    0.00000       Uiso       1.00
       C16          C  0.3164150  0.5561480  1.4705880    0.00000       Uiso       1.00
       C17          C  0.3335700  0.5182730  1.4705880    0.00000       Uiso       1.00
       C18          C  0.6637690  0.5736980  1.4705880    0.00000       Uiso       1.00
       C19          C  0.7189230  0.5910670  1.4705880    0.00000       Uiso       1.00
       C20          C  0.7573660  0.6458911  1.4705880    0.00000       Uiso       1.00
       C21          C  0.7396670  0.6836720  1.4705880    0.00000       Uiso       1.00
       C22          C  0.6846100  0.6663750  1.4705880    0.00000       Uiso       1.00
       C23          C  0.4101370  0.3366770  1.4705880    0.00000       Uiso       1.00
       C24          C  0.3721360  0.2817090  1.4705880    0.00000       Uiso       1.00
       C25          C  0.3881580  0.2429370  1.4705880    0.00000       Uiso       1.00
       C26          C  0.4435320  0.2601190  1.4705880    0.00000       Uiso       1.00
       C27          C  0.4815410  0.3150250  1.4705880    0.00000       Uiso       1.00
       H28          H  0.4689470  0.6059390  1.4705880    0.00000       Uiso       1.00
       H29          H  0.4387380  0.6698190  1.4705880    0.00000       Uiso       1.00
       H30          H  0.2738810  0.5415880  1.4705880    0.00000       Uiso       1.00
       H31          H  0.3038600  0.4761180  1.4705880    0.00000       Uiso       1.00
       H32          H  0.6376120  0.5312050  1.4705880    0.00000       Uiso       1.00
       H33          H  0.7318370  0.5616470  1.4705880    0.00000       Uiso       1.00
       H34          H  0.7674180  0.7261830  1.4705880    0.00000       Uiso       1.00
       H35          H  0.6719210  0.6959610  1.4705880    0.00000       Uiso       1.00
       H36          H  0.3939270  0.3629980  1.4705880    0.00000       Uiso       1.00
       H37          H  0.3298920  0.2691950  1.4705880    0.00000       Uiso       1.00
       H38          H  0.4580140  0.2320770  1.4705880    0.00000       Uiso       1.00
       H39          H  0.5237220  0.3273100  1.4705880    0.00000       Uiso       1.00
       N40          N  0.3395510  0.6524120  1.4705880    0.00000       Uiso       1.00
       C41          C  0.2912090  0.6450910  1.4705880    0.00000       Uiso       1.00
       H42          H  0.2558030  0.6059800  1.4705880    0.00000       Uiso       1.00
       N43          N  0.8131770  0.6608870  1.4705880    0.00000       Uiso       1.00
       C44          C  0.8539660  0.7092480  1.4705880    0.00000       Uiso       1.00
       H45          H  0.8500100  0.7445520  1.4705880    0.00000       Uiso       1.00
       N46          N  0.3470770  0.1873420  1.4705880    0.00000       Uiso       1.00
       C47          C  0.3542510  0.1462580  1.4705880    0.00000       Uiso       1.00
       H48          H  0.3933560  0.1497890  1.4705880    0.00000       Uiso       1.00
       C49          C  0.2117320  0.8289540  1.4705880    0.00000       Uiso       1.00
       N50          N  0.2157370  0.8779460  1.4705880    0.00000       Uiso       1.00
       C51          C  0.1713710  0.8830879  1.4705880    0.00000       Uiso       1.00
       N52          N  0.1223880  0.8381779  1.4705880    0.00000       Uiso       1.00
       C53          C  0.1173020  0.7887770  1.4705880    0.00000       Uiso       1.00
       N54          N  0.1622980  0.7847180  1.4705880    0.00000       Uiso       1.00
       O55          O  0.2594970  0.8267369  1.4705880    0.00000       Uiso       1.00
       O56          O  0.1733710  0.9329010  1.4705880    0.00000       Uiso       1.00
       O57          O  0.0674460  0.7410780  1.4705880    0.00000       Uiso       1.00
       C58          C  0.2634000  0.7796840  1.4705880    0.00000       Uiso       1.00
       C59          C  0.2202680  0.9838530  1.4705880    0.00000       Uiso       1.00
       C60          C  0.0164560  0.7371580  1.4705880    0.00000       Uiso       1.00
       C61          C  0.0060810  0.7805620  1.4705880    0.00000       Uiso       1.00
       C62          C  0.9530990  0.7708480  1.4705880    0.00000       Uiso       1.00
       C63          C  0.9094030  0.7181849  1.4705880    0.00000       Uiso       1.00
       C64          C  0.9194120  0.6750290  1.4705880    0.00000       Uiso       1.00
       C65          C  0.9722760  0.6846580  1.4705880    0.00000       Uiso       1.00
       C66          C  0.2740760  0.9942651  1.4705880    0.00000       Uiso       1.00
       C67          C  0.3171600  0.0472230  1.4705880    0.00000       Uiso       1.00
       C68          C  0.3079600  0.0908400  1.4705880    0.00000       Uiso       1.00
       C69          C  0.2547530  0.0807750  1.4705880    0.00000       Uiso       1.00
       C70          C  0.2117120  0.0279470  1.4705880    0.00000       Uiso       1.00
       C71          C  0.2199320  0.7260270  1.4705880    0.00000       Uiso       1.00
       C72          C  0.2296210  0.6827670  1.4705880    0.00000       Uiso       1.00
       C73          C  0.2823210  0.6915990  1.4705880    0.00000       Uiso       1.00
       C74          C  0.3255460  0.7446350  1.4705880    0.00000       Uiso       1.00
       C75          C  0.3159450  0.7878710  1.4705880    0.00000       Uiso       1.00
       H76          H  0.0366540  0.8218630  1.4705880    0.00000       Uiso       1.00
       H77          H  0.9462140  0.8045070  1.4705880    0.00000       Uiso       1.00
       H78          H  0.8866710  0.6341110  1.4705880    0.00000       Uiso       1.00
       H79          H  0.9790520  0.6509479  1.4705880    0.00000       Uiso       1.00
       H80          H  0.2849230  0.9637169  1.4705880    0.00000       Uiso       1.00
       H81          H  0.3577420  0.0541520  1.4705880    0.00000       Uiso       1.00
       H82          H  0.2463940  0.1134460  1.4705880    0.00000       Uiso       1.00
       H83          H  0.1711880  0.0211270  1.4705880    0.00000       Uiso       1.00
       H84          H  0.1785890  0.7153690  1.4705880    0.00000       Uiso       1.00
       H85          H  0.1959050  0.6423270  1.4705880    0.00000       Uiso       1.00
       H86          H  0.3664990  0.7527120  1.4705880    0.00000       Uiso       1.00
       H87          H  0.3497120  0.8282509  1.4705880    0.00000       Uiso       1.00
