data_TPT-COF-2
_audit_creation_date              0000-00-00
_audit_creation_method            'LanYouShi'
_symmetry_space_group_name_H-M    'P1'
_cell_length_a                    40.7177010
_cell_length_b                    40.7145004
_cell_length_c                    3.4000001
_cell_angle_alpha                 90.0000000
_cell_angle_beta                  90.0000000
_cell_angle_gamma                 119.7882004
loop_
_atom_site_label
_atom_site_type_symbol
_atom_site_fract_x
_atom_site_fract_y
_atom_site_fract_z
_atom_site_U_iso_or_equiv
_atom_site_adp_type
_atom_site_occupancy
        C1          C  0.5014100  0.4669450  1.4705880    0.00000       Uiso       1.00
        N2          N  0.5339070  0.5010870  1.4705880    0.00000       Uiso       1.00
        C3          C  0.5329410  0.5340330  1.4705880    0.00000       Uiso       1.00
        N4          N  0.4987410  0.5324400  1.4705880    0.00000       Uiso       1.00
        C5          C  0.4658810  0.4987060  1.4705880    0.00000       Uiso       1.00
        N6          N  0.4676120  0.4661660  1.4705880    0.00000       Uiso       1.00
        O7          O  0.5045860  0.4339470  1.4705880    0.00000       Uiso       1.00
        O8          O  0.5657550  0.5701140  1.4705880    0.00000       Uiso       1.00
        O9          O  0.4297700  0.4955980  1.4705880    0.00000       Uiso       1.00
       C10          C  0.4741030  0.3960870  1.4705880    0.00000       Uiso       1.00
       C11          C  0.6037240  0.5776600  1.4705880    0.00000       Uiso       1.00
       C12          C  0.4222380  0.5260900  1.4705880    0.00000       Uiso       1.00
       C13          C  0.4496430  0.5654390  1.4705880    0.00000       Uiso       1.00
       C14          C  0.4380870  0.5928530  1.4705880    0.00000       Uiso       1.00
       C15          C  0.3994200  0.5821540  1.4705880    0.00000       Uiso       1.00
       C16          C  0.3720480  0.5430930  1.4705880    0.00000       Uiso       1.00
       C17          C  0.3835550  0.5156850  1.4705880    0.00000       Uiso       1.00
       C18          C  0.6158460  0.5502650  1.4705880    0.00000       Uiso       1.00
       C19          C  0.6547570  0.5618530  1.4705880    0.00000       Uiso       1.00
       C20          C  0.6824680  0.6005420  1.4705880    0.00000       Uiso       1.00
       C21          C  0.6705780  0.6278910  1.4705880    0.00000       Uiso       1.00
       C22          C  0.6317350  0.6163530  1.4705880    0.00000       Uiso       1.00
       C23          C  0.4347410  0.3843620  1.4705880    0.00000       Uiso       1.00
       C24          C  0.4073380  0.3455640  1.4705880    0.00000       Uiso       1.00
       C25          C  0.4180390  0.3175300  1.4705880    0.00000       Uiso       1.00
       C26          C  0.4571020  0.3289810  1.4705880    0.00000       Uiso       1.00
       C27          C  0.4845090  0.3677350  1.4705880    0.00000       Uiso       1.00
       H28          H  0.4796850  0.5764000  1.4705880    0.00000       Uiso       1.00
       H29          H  0.4593830  0.6226460  1.4705880    0.00000       Uiso       1.00
       H30          H  0.3420230  0.5333210  1.4705880    0.00000       Uiso       1.00
       H31          H  0.3621430  0.4859390  1.4705880    0.00000       Uiso       1.00
       H32          H  0.5969190  0.5202210  1.4705880    0.00000       Uiso       1.00
       H33          H  0.6634070  0.5405700  1.4705880    0.00000       Uiso       1.00
       H34          H  0.6906220  0.6579230  1.4705880    0.00000       Uiso       1.00
       H35          H  0.6232450  0.6377510  1.4705880    0.00000       Uiso       1.00
       H36          H  0.4237380  0.4034760  1.4705880    0.00000       Uiso       1.00
       H37          H  0.3775460  0.3372530  1.4705880    0.00000       Uiso       1.00
       H38          H  0.4668710  0.3086610  1.4705880    0.00000       Uiso       1.00
       H39          H  0.5142550  0.3758820  1.4705880    0.00000       Uiso       1.00
       N40          N  0.3895960  0.6117160  1.4705880    0.00000       Uiso       1.00
       C41          C  0.3555990  0.6072220  1.4705880    0.00000       Uiso       1.00
       H42          H  0.3302350  0.5797460  1.4705880    0.00000       Uiso       1.00
       N43          N  0.7218070  0.6104200  1.4705880    0.00000       Uiso       1.00
       C44          C  0.7510730  0.6444410  1.4705880    0.00000       Uiso       1.00
       H45          H  0.7487859  0.6698000  1.4705880    0.00000       Uiso       1.00
       N46          N  0.3884680  0.2783300  1.4705880    0.00000       Uiso       1.00
       C47          C  0.3929330  0.2487770  1.4705880    0.00000       Uiso       1.00
       H48          H  0.4204010  0.2506990  1.4705880    0.00000       Uiso       1.00
       C49          C  0.1648840  0.8669990  1.4705951    0.00000       Uiso       1.00
       N50          N  0.1323870  0.8328570  1.4705940    0.00000       Uiso       1.00
       C51          C  0.1333530  0.7999110  1.4705940    0.00000       Uiso       1.00
       N52          N  0.1675530  0.8015040  1.4705951    0.00000       Uiso       1.00
       C53          C  0.2004120  0.8352380  1.4705951    0.00000       Uiso       1.00
       N54          N  0.1986810  0.8677780  1.4705951    0.00000       Uiso       1.00
       O55          O  0.1617080  0.8999970  1.4705951    0.00000       Uiso       1.00
       O56          O  0.1005390  0.7638300  1.4705940    0.00000       Uiso       1.00
       O57          O  0.2365230  0.8383460  1.4705960    0.00000       Uiso       1.00
       C58          C  0.1921910  0.9378570  1.4705951    0.00000       Uiso       1.00
       C59          C  0.0625690  0.7562840  1.4705930    0.00000       Uiso       1.00
       C60          C  0.2440560  0.8078540  1.4705960    0.00000       Uiso       1.00
       C61          C  0.2166500  0.7685050  1.4705951    0.00000       Uiso       1.00
       C62          C  0.2282070  0.7410910  1.4705951    0.00000       Uiso       1.00
       C63          C  0.2668740  0.7517900  1.4705960    0.00000       Uiso       1.00
       C64          C  0.2942460  0.7908510  1.4705960    0.00000       Uiso       1.00
       C65          C  0.2827390  0.8182590  1.4705960    0.00000       Uiso       1.00
       C66          C  0.0504480  0.7836790  1.4705930    0.00000       Uiso       1.00
       C67          C  0.0115360  0.7720910  1.4705920    0.00000       Uiso       1.00
       C68          C  0.9838260  0.7334020  1.4705920    0.00000       Uiso       1.00
       C69          C  0.9957160  0.7060530  1.4705920    0.00000       Uiso       1.00
       C70          C  0.0345590  0.7175910  1.4705920    0.00000       Uiso       1.00
       C71          C  0.2315530  0.9495819  1.4705960    0.00000       Uiso       1.00
       C72          C  0.2589550  0.9883800  1.4705970    0.00000       Uiso       1.00
       C73          C  0.2482540  0.0164130  1.4705970    0.00000       Uiso       1.00
       C74          C  0.2091910  0.0049620  1.4705960    0.00000       Uiso       1.00
       C75          C  0.1817840  0.9662080  1.4705951    0.00000       Uiso       1.00
       H76          H  0.1866090  0.7575440  1.4705951    0.00000       Uiso       1.00
       H77          H  0.2069100  0.7112980  1.4705951    0.00000       Uiso       1.00
       H78          H  0.3242700  0.8006230  1.4705970    0.00000       Uiso       1.00
       H79          H  0.3041510  0.8480050  1.4705970    0.00000       Uiso       1.00
       H80          H  0.0693740  0.8137230  1.4705930    0.00000       Uiso       1.00
       H81          H  0.0028870  0.7933740  1.4705920    0.00000       Uiso       1.00
       H82          H  0.9756720  0.6760210  1.4705909    0.00000       Uiso       1.00
       H83          H  0.0430490  0.6961930  1.4705920    0.00000       Uiso       1.00
       H84          H  0.2425560  0.9304680  1.4705960    0.00000       Uiso       1.00
       H85          H  0.2887480  0.9966910  1.4705970    0.00000       Uiso       1.00
       H86          H  0.1994220  0.0252820  1.4705960    0.00000       Uiso       1.00
       H87          H  0.1520390  0.9580620  1.4705951    0.00000       Uiso       1.00
       N88          N  0.2766980  0.7222280  1.4705960    0.00000       Uiso       1.00
       C89          C  0.3106950  0.7267220  1.4705960    0.00000       Uiso       1.00
       H90          H  0.3360590  0.7541980  1.4705970    0.00000       Uiso       1.00
       N91          N  0.9444860  0.7235240  1.4705909    0.00000       Uiso       1.00
       C92          C  0.9152200  0.6895030  1.4705909    0.00000       Uiso       1.00
       H93          H  0.9175080  0.6641430  1.4705900    0.00000       Uiso       1.00
       N94          N  0.2778250  0.0556130  1.4705970    0.00000       Uiso       1.00
       C95          C  0.2733610  0.0851660  1.4705970    0.00000       Uiso       1.00
       H96          H  0.2458920  0.0832440  1.4705970    0.00000       Uiso       1.00
       C97          C  0.8719040  0.6776120  1.4705890    0.00000       Uiso       1.00
       C98          C  0.8438371  0.6391920  1.4705890    0.00000       Uiso       1.00
       C99          C  0.8224600  0.6947520  1.4705890    0.00000       Uiso       1.00
      H100          H  0.8516790  0.6173290  1.4705890    0.00000       Uiso       1.00
      C101          C  0.8608490  0.7052920  1.4705890    0.00000       Uiso       1.00
      C102          C  0.8054480  0.6286530  1.4705880    0.00000       Uiso       1.00
      H103          H  0.8819930  0.7351130  1.4705890    0.00000       Uiso       1.00
      C104          C  0.7943910  0.6563320  1.4705880    0.00000       Uiso       1.00
      H105          H  0.7843010  0.5988320  1.4705870    0.00000       Uiso       1.00
      H106          H  0.8146140  0.7166140  1.4705890    0.00000       Uiso       1.00
      C107          C  0.3225440  0.6951870  1.4705890    0.00000       Uiso       1.00
      C108          C  0.3609510  0.7052550  1.4705890    0.00000       Uiso       1.00
      C109          C  0.3053420  0.6286910  1.4705890    0.00000       Uiso       1.00
      H110          H  0.3828340  0.7348130  1.4705890    0.00000       Uiso       1.00
      C111          C  0.2948400  0.6566380  1.4705890    0.00000       Uiso       1.00
      C112          C  0.3714530  0.6773070  1.4705880    0.00000       Uiso       1.00
      H113          H  0.2650270  0.6481820  1.4705890    0.00000       Uiso       1.00
      C114          C  0.3437490  0.6387580  1.4705880    0.00000       Uiso       1.00
      H115          H  0.4012650  0.6857610  1.4705870    0.00000       Uiso       1.00
      H116          H  0.2834610  0.5991320  1.4705890    0.00000       Uiso       1.00
      C117          C  0.3049140  0.1283400  1.4705890    0.00000       Uiso       1.00
      C118          C  0.2948740  0.1567660  1.4705890    0.00000       Uiso       1.00
      C119          C  0.3714170  0.1771740  1.4705890    0.00000       Uiso       1.00
      H120          H  0.2653230  0.1493020  1.4705890    0.00000       Uiso       1.00
      C121          C  0.3434540  0.1389100  1.4705890    0.00000       Uiso       1.00
      C122          C  0.3228380  0.1950300  1.4705880    0.00000       Uiso       1.00
      H123          H  0.3518890  0.1174830  1.4705890    0.00000       Uiso       1.00
      C124          C  0.3613770  0.2056010  1.4705880    0.00000       Uiso       1.00
      H125          H  0.3144050  0.2164600  1.4705870    0.00000       Uiso       1.00
      H126          H  0.4009690  0.1846420  1.4705890    0.00000       Uiso       1.00
