data_TpTD
_audit_creation_date              0000-00-00
_audit_creation_method            'LanYouShi'
_symmetry_space_group_name_H-M    'P1'
_cell_length_a                    38.0452995
_cell_length_b                    38.0452995
_cell_length_c                    3.4986000
_cell_angle_alpha                 90.0000000
_cell_angle_beta                  90.0000000
_cell_angle_gamma                 120.0000000
loop_
_atom_site_label
_atom_site_type_symbol
_atom_site_fract_x
_atom_site_fract_y
_atom_site_fract_z
_atom_site_U_iso_or_equiv
_atom_site_adp_type
_atom_site_occupancy
        C1          C  0.9770940  0.4580720  0.0000000    0.00000       Uiso       1.00
        C2          C  0.0197740  0.4778090  0.0000000    0.00000       Uiso       1.00
        C3          C  0.0448610  0.5207460  0.0000000    0.00000       Uiso       1.00
        C4          C  0.9114800  0.4590670  0.0000000    0.00000       Uiso       1.00
        C5          C  0.1103360  0.5194710  0.0000000    0.00000       Uiso       1.00
        C6          C  0.1529790  0.5390940  0.0000000    0.00000       Uiso       1.00
        C7          C  0.1767300  0.5816770  0.0000000    0.00000       Uiso       1.00
        C8          C  0.1561850  0.6039330  0.0000000    0.00000       Uiso       1.00
        C9          C  0.1135100  0.5840360  0.0000000    0.00000       Uiso       1.00
       N10          N  0.7823460  0.4024440  0.0000000    0.00000       Uiso       1.00
       C11          C  0.7524070  0.3629920  0.0000000    0.00000       Uiso       1.00
       C12          C  0.7099010  0.3489900  0.0000000    0.00000       Uiso       1.00
       C13          C  0.6935440  0.3754540  0.0000000    0.00000       Uiso       1.00
       H14          H  0.9627760  0.4272300  0.0000000    0.00000       Uiso       1.00
       H15          H  0.0316740  0.4590940  0.0000000    0.00000       Uiso       1.00
       H16          H  0.0960420  0.4886460  0.0000000    0.00000       Uiso       1.00
       H17          H  0.1666750  0.5217660  0.0000000    0.00000       Uiso       1.00
       H18          H  0.1718070  0.6349020  0.0000000    0.00000       Uiso       1.00
       H19          H  0.1015950  0.6027260  0.0000000    0.00000       Uiso       1.00
       H20          H  0.7613740  0.3418330  0.0000000    0.00000       Uiso       1.00
       O21          O  0.7171840  0.4131550  0.0000000    0.00000       Uiso       1.00
       H22          H  0.7734230  0.4220560  0.0000000    0.00000       Uiso       1.00
       C23          C  0.5419280  0.5190230  0.0000000    0.00000       Uiso       1.00
       C24          C  0.5221910  0.5419650  0.0000000    0.00000       Uiso       1.00
       C25          C  0.4792540  0.5241150  0.0000000    0.00000       Uiso       1.00
       C26          C  0.5409330  0.4524140  0.0000000    0.00000       Uiso       1.00
       C27          C  0.4805300  0.5908660  0.0000000    0.00000       Uiso       1.00
       C28          C  0.4609060  0.6138850  0.0000000    0.00000       Uiso       1.00
       C29          C  0.4183240  0.5950540  0.0000000    0.00000       Uiso       1.00
       C30          C  0.3960670  0.5522520  0.0000000    0.00000       Uiso       1.00
       C31          C  0.4159640  0.5294740  0.0000000    0.00000       Uiso       1.00
       N32          N  0.5975560  0.3799020  0.0000000    0.00000       Uiso       1.00
       C33          C  0.6370080  0.3894150  0.0000000    0.00000       Uiso       1.00
       C34          C  0.6510110  0.3609120  0.0000000    0.00000       Uiso       1.00
       C35          C  0.6245460  0.3180900  0.0000000    0.00000       Uiso       1.00
       H36          H  0.5727700  0.5355460  0.0000000    0.00000       Uiso       1.00
       H37          H  0.5409070  0.5725810  0.0000000    0.00000       Uiso       1.00
       H38          H  0.5113540  0.6073960  0.0000000    0.00000       Uiso       1.00
       H39          H  0.4782340  0.6449090  0.0000000    0.00000       Uiso       1.00
       H40          H  0.3650980  0.5369060  0.0000000    0.00000       Uiso       1.00
       H41          H  0.3972740  0.4988690  0.0000000    0.00000       Uiso       1.00
       H42          H  0.6581670  0.4195410  0.0000000    0.00000       Uiso       1.00
       O43          O  0.5868450  0.3040290  0.0000000    0.00000       Uiso       1.00
       H44          H  0.5779440  0.3513660  0.0000000    0.00000       Uiso       1.00
       C45          C  0.4809770  0.0229060  0.0000000    0.00000       Uiso       1.00
       C46          C  0.4580350  0.9802260  0.0000000    0.00000       Uiso       1.00
       C47          C  0.4758850  0.9551390  0.0000000    0.00000       Uiso       1.00
       C48          C  0.5475870  0.0885200  0.0000000    0.00000       Uiso       1.00
       C49          C  0.4091340  0.8896640  0.0000000    0.00000       Uiso       1.00
       C50          C  0.3861150  0.8470210  0.0000000    0.00000       Uiso       1.00
       C51          C  0.4049460  0.8232700  0.0000000    0.00000       Uiso       1.00
       C52          C  0.4477480  0.8438160  0.0000000    0.00000       Uiso       1.00
       C53          C  0.4705260  0.8864900  0.0000000    0.00000       Uiso       1.00
       N54          N  0.6200980  0.2176540  0.0000000    0.00000       Uiso       1.00
       C55          C  0.6105850  0.2475930  0.0000000    0.00000       Uiso       1.00
       C56          C  0.6390880  0.2900990  0.0000000    0.00000       Uiso       1.00
       C57          C  0.6819100  0.3064560  0.0000000    0.00000       Uiso       1.00
       H58          H  0.4644550  0.0372240  0.0000000    0.00000       Uiso       1.00
       H59          H  0.4274190  0.9683260  0.0000000    0.00000       Uiso       1.00
       H60          H  0.3926050  0.9039590  0.0000000    0.00000       Uiso       1.00
       H61          H  0.3550910  0.8333250  0.0000000    0.00000       Uiso       1.00
       H62          H  0.4630950  0.8281930  0.0000000    0.00000       Uiso       1.00
       H63          H  0.5011310  0.8984050  0.0000000    0.00000       Uiso       1.00
       H64          H  0.5804590  0.2386260  0.0000000    0.00000       Uiso       1.00
       O65          O  0.6959710  0.2828160  0.0000000    0.00000       Uiso       1.00
       H66          H  0.6486340  0.2265780  0.0000000    0.00000       Uiso       1.00
       C67          C  0.0229060  0.5419280  0.0000000    0.00000       Uiso       1.00
       C68          C  0.9802260  0.5221910  0.0000000    0.00000       Uiso       1.00
       C69          C  0.9551390  0.4792540  0.0000000    0.00000       Uiso       1.00
       C70          C  0.0885200  0.5409330  0.0000000    0.00000       Uiso       1.00
       C71          C  0.8896640  0.4805300  0.0000000    0.00000       Uiso       1.00
       C72          C  0.8470210  0.4609060  0.0000000    0.00000       Uiso       1.00
       C73          C  0.8232700  0.4183240  0.0000000    0.00000       Uiso       1.00
       C74          C  0.8438160  0.3960670  0.0000000    0.00000       Uiso       1.00
       C75          C  0.8864900  0.4159640  0.0000000    0.00000       Uiso       1.00
       N76          N  0.2176540  0.5975560  0.0000000    0.00000       Uiso       1.00
       C77          C  0.2475930  0.6370080  0.0000000    0.00000       Uiso       1.00
       C78          C  0.2900990  0.6510110  0.0000000    0.00000       Uiso       1.00
       C79          C  0.3064560  0.6245460  0.0000000    0.00000       Uiso       1.00
       H80          H  0.0372240  0.5727700  0.0000000    0.00000       Uiso       1.00
       H81          H  0.9683260  0.5409070  0.0000000    0.00000       Uiso       1.00
       H82          H  0.9039590  0.5113540  0.0000000    0.00000       Uiso       1.00
       H83          H  0.8333250  0.4782340  0.0000000    0.00000       Uiso       1.00
       H84          H  0.8281930  0.3650980  0.0000000    0.00000       Uiso       1.00
       H85          H  0.8984050  0.3972740  0.0000000    0.00000       Uiso       1.00
       H86          H  0.2386260  0.6581670  0.0000000    0.00000       Uiso       1.00
       O87          O  0.2828160  0.5868450  0.0000000    0.00000       Uiso       1.00
       H88          H  0.2265780  0.5779440  0.0000000    0.00000       Uiso       1.00
       C89          C  0.4580720  0.4809780  0.0000000    0.00000       Uiso       1.00
       C90          C  0.4778090  0.4580350  0.0000000    0.00000       Uiso       1.00
       C91          C  0.5207460  0.4758850  0.0000000    0.00000       Uiso       1.00
       C92          C  0.4590670  0.5475870  0.0000000    0.00000       Uiso       1.00
       C93          C  0.5194710  0.4091340  0.0000000    0.00000       Uiso       1.00
       C94          C  0.5390940  0.3861150  0.0000000    0.00000       Uiso       1.00
       C95          C  0.5816770  0.4049460  0.0000000    0.00000       Uiso       1.00
       C96          C  0.6039330  0.4477480  0.0000000    0.00000       Uiso       1.00
       C97          C  0.5840360  0.4705260  0.0000000    0.00000       Uiso       1.00
       N98          N  0.4024440  0.6200980  0.0000000    0.00000       Uiso       1.00
       C99          C  0.3629920  0.6105850  0.0000000    0.00000       Uiso       1.00
      C100          C  0.3489900  0.6390880  0.0000000    0.00000       Uiso       1.00
      C101          C  0.3754540  0.6819100  0.0000000    0.00000       Uiso       1.00
      H102          H  0.4272300  0.4644550  0.0000000    0.00000       Uiso       1.00
      H103          H  0.4590940  0.4274190  0.0000000    0.00000       Uiso       1.00
      H104          H  0.4886460  0.3926050  0.0000000    0.00000       Uiso       1.00
      H105          H  0.5217660  0.3550910  0.0000000    0.00000       Uiso       1.00
      H106          H  0.6349020  0.4630950  0.0000000    0.00000       Uiso       1.00
      H107          H  0.6027260  0.5011310  0.0000000    0.00000       Uiso       1.00
      H108          H  0.3418330  0.5804590  0.0000000    0.00000       Uiso       1.00
      O109          O  0.4131550  0.6959710  0.0000000    0.00000       Uiso       1.00
      H110          H  0.4220560  0.6486340  0.0000000    0.00000       Uiso       1.00
      C111          C  0.5190230  0.9770940  0.0000000    0.00000       Uiso       1.00
      C112          C  0.5419650  0.0197740  0.0000000    0.00000       Uiso       1.00
      C113          C  0.5241150  0.0448610  0.0000000    0.00000       Uiso       1.00
      C114          C  0.4524140  0.9114800  0.0000000    0.00000       Uiso       1.00
      C115          C  0.5908660  0.1103360  0.0000000    0.00000       Uiso       1.00
      C116          C  0.6138850  0.1529790  0.0000000    0.00000       Uiso       1.00
      C117          C  0.5950540  0.1767300  0.0000000    0.00000       Uiso       1.00
      C118          C  0.5522520  0.1561850  0.0000000    0.00000       Uiso       1.00
      C119          C  0.5294740  0.1135100  0.0000000    0.00000       Uiso       1.00
      N120          N  0.3799020  0.7823460  0.0000000    0.00000       Uiso       1.00
      C121          C  0.3894150  0.7524070  0.0000000    0.00000       Uiso       1.00
      C122          C  0.3609120  0.7099010  0.0000000    0.00000       Uiso       1.00
      C123          C  0.3180900  0.6935440  0.0000000    0.00000       Uiso       1.00
      H124          H  0.5355460  0.9627760  0.0000000    0.00000       Uiso       1.00
      H125          H  0.5725810  0.0316740  0.0000000    0.00000       Uiso       1.00
      H126          H  0.6073960  0.0960420  0.0000000    0.00000       Uiso       1.00
      H127          H  0.6449090  0.1666750  0.0000000    0.00000       Uiso       1.00
      H128          H  0.5369060  0.1718070  0.0000000    0.00000       Uiso       1.00
      H129          H  0.4988690  0.1015950  0.0000000    0.00000       Uiso       1.00
      H130          H  0.4195410  0.7613740  0.0000000    0.00000       Uiso       1.00
      O131          O  0.3040290  0.7171840  0.0000000    0.00000       Uiso       1.00
      H132          H  0.3513660  0.7734230  0.0000000    0.00000       Uiso       1.00
