data_TRIPTA
_audit_creation_date              0000-00-00
_audit_creation_method            'LanYouShi'
_symmetry_space_group_name_H-M    'P1'
_cell_length_a                    18.7068996
_cell_length_b                    18.7068996
_cell_length_c                    3.5316000
_cell_angle_alpha                 90.0000000
_cell_angle_beta                  90.0000000
_cell_angle_gamma                 120.0000000
loop_
_atom_site_label
_atom_site_type_symbol
_atom_site_fract_x
_atom_site_fract_y
_atom_site_fract_z
_atom_site_U_iso_or_equiv
_atom_site_adp_type
_atom_site_occupancy
        C1          C  0.3896010  0.5496410  0.5000060    0.00000       Uiso       1.00
        C2          C  0.4503570  0.8399580  0.5000060    0.00000       Uiso       1.00
        C3          C  0.1600400  0.6103970  0.5000060    0.00000       Uiso       1.00
        N4          N  0.4698000  0.5689050  0.5000060    0.00000       Uiso       1.00
        N5          N  0.4310930  0.9008930  0.5000060    0.00000       Uiso       1.00
        N6          N  0.0991050  0.5301980  0.5000060    0.00000       Uiso       1.00
        C7          C  0.5028330  0.5188300  0.5000060    0.00000       Uiso       1.00
        C8          C  0.4811690  0.9840020  0.5000060    0.00000       Uiso       1.00
        C9          C  0.0159970  0.4971650  0.5000060    0.00000       Uiso       1.00
       C10          C  0.5896620  0.5583040  0.5000060    0.00000       Uiso       1.00
       C11          C  0.4416940  0.0313580  0.5000060    0.00000       Uiso       1.00
       C12          C  0.9686410  0.4103360  0.5000060    0.00000       Uiso       1.00
       C13          C  0.6304880  0.5123140  0.5000060    0.00000       Uiso       1.00
       C14          C  0.4876850  0.1181740  0.5000060    0.00000       Uiso       1.00
       C15          C  0.8818240  0.3695110  0.5000060    0.00000       Uiso       1.00
       H16          H  0.3452830  0.4884760  0.5000060    0.00000       Uiso       1.00
       H17          H  0.5115220  0.8568050  0.5000060    0.00000       Uiso       1.00
       H18          H  0.1431930  0.6547150  0.5000060    0.00000       Uiso       1.00
       H19          H  0.6240870  0.6214030  0.5000060    0.00000       Uiso       1.00
       H20          H  0.3785960  0.0026850  0.5000060    0.00000       Uiso       1.00
       H21          H  0.9973130  0.3759110  0.5000060    0.00000       Uiso       1.00
       H22          H  0.6936630  0.5438770  0.5000060    0.00000       Uiso       1.00
       H23          H  0.4561210  0.1497860  0.5000060    0.00000       Uiso       1.00
       H24          H  0.8502120  0.3063350  0.5000060    0.00000       Uiso       1.00
       C25          C  0.5858350  0.4247830  0.5000060    0.00000       Uiso       1.00
       C26          C  0.5752150  0.1610520  0.5000060    0.00000       Uiso       1.00
       C27          C  0.8389470  0.4141640  0.5000060    0.00000       Uiso       1.00
       C28          C  0.4984430  0.3855920  0.5000060    0.00000       Uiso       1.00
       C29          C  0.6144060  0.1128510  0.5000060    0.00000       Uiso       1.00
       C30          C  0.8871480  0.5015550  0.5000060    0.00000       Uiso       1.00
       C31          C  0.4576440  0.4316320  0.5000060    0.00000       Uiso       1.00
       C32          C  0.5683660  0.0260120  0.5000060    0.00000       Uiso       1.00
       C33          C  0.9739860  0.5423540  0.5000060    0.00000       Uiso       1.00
       H34          H  0.4631460  0.3225640  0.5000060    0.00000       Uiso       1.00
       H35          H  0.6774350  0.1405830  0.5000060    0.00000       Uiso       1.00
       H36          H  0.8594160  0.5368520  0.5000060    0.00000       Uiso       1.00
       H37          H  0.3947340  0.4004480  0.5000060    0.00000       Uiso       1.00
       H38          H  0.5995500  0.9942840  0.5000060    0.00000       Uiso       1.00
       H39          H  0.0057140  0.6052640  0.5000060    0.00000       Uiso       1.00
       H40          H  0.5090720  0.6277580  0.5000060    0.00000       Uiso       1.00
       H41          H  0.3722400  0.8813110  0.5000060    0.00000       Uiso       1.00
       H42          H  0.1186870  0.4909270  0.5000060    0.00000       Uiso       1.00
       N43          N  0.5843110  0.2946970  0.5000060    0.00000       Uiso       1.00
       N44          N  0.7053010  0.2896140  0.5000060    0.00000       Uiso       1.00
       N45          N  0.7103840  0.4156870  0.5000060    0.00000       Uiso       1.00
       C46          C  0.6268380  0.3784000  0.5000060    0.00000       Uiso       1.00
       C47          C  0.6215980  0.2484380  0.5000060    0.00000       Uiso       1.00
       C48          C  0.7515600  0.3731600  0.5000060    0.00000       Uiso       1.00
       C49          C  0.4183670  0.6957280  0.5000060    0.00000       Uiso       1.00
       C50          C  0.3042700  0.7226370  0.5000060    0.00000       Uiso       1.00
       C51          C  0.2773610  0.5816310  0.5000060    0.00000       Uiso       1.00
       C52          C  0.3631750  0.6090720  0.5000060    0.00000       Uiso       1.00
       C53          C  0.3909260  0.7541010  0.5000060    0.00000       Uiso       1.00
       C54          C  0.2458970  0.6368230  0.5000060    0.00000       Uiso       1.00
       O55          O  0.4948600  0.7232530  0.5000060    0.00000       Uiso       1.00
       O56          O  0.2767450  0.7716050  0.5000060    0.00000       Uiso       1.00
       O57          O  0.2283930  0.5051390  0.5000060    0.00000       Uiso       1.00
