data_BW-COF-AB
_audit_creation_date              0000-00-00
_audit_creation_method            'LanYouShi'
_symmetry_space_group_name_H-M    'P1'
_cell_length_a                    6.9099998
_cell_length_b                    45.2700005
_cell_length_c                    42.6599998
_cell_angle_alpha                 90.0000000
_cell_angle_beta                  90.0000000
_cell_angle_gamma                 90.0000000
loop_
_atom_site_label
_atom_site_type_symbol
_atom_site_fract_x
_atom_site_fract_y
_atom_site_fract_z
_atom_site_U_iso_or_equiv
_atom_site_adp_type
_atom_site_occupancy
        N1          N  0.7500000  0.2784400  0.2680500    0.00000       Uiso       1.00
        N2          N  0.7500000  0.2837700  0.2149400    0.00000       Uiso       1.00
        N3          N  0.7500000  0.2233400  0.6987900    0.00000       Uiso       1.00
        N4          N  0.7500000  0.2180200  0.7519100    0.00000       Uiso       1.00
        N5          N  0.7500000  0.0624000  0.7360200    0.00000       Uiso       1.00
        N6          N  0.7500000  0.4373800  0.2799100    0.00000       Uiso       1.00
        N7          N  0.7500000  0.2595600  0.5488300    0.00000       Uiso       1.00
        N8          N  0.7500000  0.2329600  0.0470200    0.00000       Uiso       1.00
        N9          N  0.7500000  0.2687600  0.9197700    0.00000       Uiso       1.00
       N10          N  0.7500000  0.2424700  0.4178600    0.00000       Uiso       1.00
       C11          C  0.7500000  0.2500500  0.2538900    0.00000       Uiso       1.00
       C12          C  0.7500000  0.2223200  0.2684800    0.00000       Uiso       1.00
       C13          C  0.7500000  0.1974100  0.2485200    0.00000       Uiso       1.00
       C14          C  0.7500000  0.2532600  0.2223200    0.00000       Uiso       1.00
       C15          C  0.7500000  0.2292100  0.2017000    0.00000       Uiso       1.00
       C16          C  0.7500000  0.2008200  0.2154900    0.00000       Uiso       1.00
       C17          C  0.7500000  0.2970900  0.2433000    0.00000       Uiso       1.00
       C18          C  0.7500000  0.2517300  0.7129500    0.00000       Uiso       1.00
       C19          C  0.7500000  0.2794500  0.6983400    0.00000       Uiso       1.00
       C20          C  0.7500000  0.2485300  0.7445200    0.00000       Uiso       1.00
       C21          C  0.7500000  0.3009800  0.7513400    0.00000       Uiso       1.00
       C22          C  0.7500000  0.0309200  0.7350400    0.00000       Uiso       1.00
       C23          C  0.7500000  0.2047000  0.7235500    0.00000       Uiso       1.00
       C24          C  0.7500000  0.2726000  0.7651300    0.00000       Uiso       1.00
       C25          C  0.7500000  0.3043700  0.7183100    0.00000       Uiso       1.00
       C26          C  0.7500000  0.2196900  0.3031800    0.00000       Uiso       1.00
       C27          C  0.7500000  0.2820800  0.6636100    0.00000       Uiso       1.00
       C28          C  0.7500000  0.2847000  0.5634000    0.00000       Uiso       1.00
       C29          C  0.7500000  0.2680700  0.7996500    0.00000       Uiso       1.00
       C30          C  0.7500000  0.2337400  0.1671700    0.00000       Uiso       1.00
       C31          C  0.7500000  0.1725700  0.7201300    0.00000       Uiso       1.00
       C32          C  0.7500000  0.3292200  0.2467100    0.00000       Uiso       1.00
       C33          C  0.7500000  0.3423500  0.2764700    0.00000       Uiso       1.00
       C34          C  0.7500000  0.3731000  0.2792800    0.00000       Uiso       1.00
       C35          C  0.7500000  0.3907100  0.2522700    0.00000       Uiso       1.00
       C36          C  0.7500000  0.3775900  0.2226800    0.00000       Uiso       1.00
       C37          C  0.7500000  0.3469700  0.2198900    0.00000       Uiso       1.00
       C38          C  0.7500000  0.4228300  0.2537700    0.00000       Uiso       1.00
       C39          C  0.7500000  0.2557700  0.5157100    0.00000       Uiso       1.00
       C40          C  0.7500000  0.2270000  0.5037900    0.00000       Uiso       1.00
       C41          C  0.7500000  0.2221900  0.4715200    0.00000       Uiso       1.00
       C42          C  0.7500000  0.2463100  0.4509700    0.00000       Uiso       1.00
       C43          C  0.7500000  0.2750900  0.4628900    0.00000       Uiso       1.00
       C44          C  0.7500000  0.2799000  0.4951700    0.00000       Uiso       1.00
       C45          C  0.7500000  0.2421600  0.0149500    0.00000       Uiso       1.00
       C46          C  0.7500000  0.2208100  0.9914000    0.00000       Uiso       1.00
       C47          C  0.7500000  0.2294100  0.9600200    0.00000       Uiso       1.00
       C48          C  0.7500000  0.2595500  0.9518300    0.00000       Uiso       1.00
       C49          C  0.7500000  0.2808900  0.9753800    0.00000       Uiso       1.00
       C50          C  0.7500000  0.2722900  0.0067600    0.00000       Uiso       1.00
       C51          C  0.7500000  0.2446100  0.1023500    0.00000       Uiso       1.00
       C52          C  0.7500000  0.1548000  0.7469300    0.00000       Uiso       1.00
       C53          C  0.7500000  0.1241900  0.7440800    0.00000       Uiso       1.00
       C54          C  0.7500000  0.1110500  0.7143600    0.00000       Uiso       1.00
       C55          C  0.7500000  0.1287300  0.6875100    0.00000       Uiso       1.00
       C56          C  0.7500000  0.1594700  0.6903700    0.00000       Uiso       1.00
       C57          C  0.7500000  0.0789300  0.7112600    0.00000       Uiso       1.00
       C58          C  0.7500000  0.2100100  0.1459100    0.00000       Uiso       1.00
       C59          C  0.7500000  0.2154200  0.1134900    0.00000       Uiso       1.00
       C60          C  0.7500000  0.2680100  0.1233000    0.00000       Uiso       1.00
       C61          C  0.7500000  0.2625700  0.1551900    0.00000       Uiso       1.00
       C62          C  0.7500000  0.2918000  0.8209000    0.00000       Uiso       1.00
       C63          C  0.7500000  0.2863700  0.8533199    0.00000       Uiso       1.00
       C64          C  0.7500000  0.2571600  0.8644400    0.00000       Uiso       1.00
       C65          C  0.7500000  0.2337800  0.8434900    0.00000       Uiso       1.00
       C66          C  0.7500000  0.2392400  0.8116100    0.00000       Uiso       1.00
       C67          C  0.7500000  0.2494300  0.8975200    0.00000       Uiso       1.00
       C68          C  0.7500000  0.2523100  0.0692600    0.00000       Uiso       1.00
       C69          C  0.7500000  0.1922500  0.3186400    0.00000       Uiso       1.00
       C70          C  0.7500000  0.1910700  0.3515900    0.00000       Uiso       1.00
       C71          C  0.7500000  0.2173200  0.3690600    0.00000       Uiso       1.00
       C72          C  0.7500000  0.2444100  0.3535800    0.00000       Uiso       1.00
       C73          C  0.7500000  0.2454500  0.3212900    0.00000       Uiso       1.00
       C74          C  0.7500000  0.2172900  0.4033600    0.00000       Uiso       1.00
       C75          C  0.7500000  0.3095300  0.6481700    0.00000       Uiso       1.00
       C76          C  0.7500000  0.3107600  0.6152300    0.00000       Uiso       1.00
       C77          C  0.7500000  0.2845500  0.5977000    0.00000       Uiso       1.00
       C78          C  0.7500000  0.2574300  0.6131400    0.00000       Uiso       1.00
       C79          C  0.7500000  0.2563400  0.6454600    0.00000       Uiso       1.00
       C80          C  0.7500000  0.4689900  0.2798400    0.00000       Uiso       1.00
       C81          C  0.7500000  0.4845200  0.3082300    0.00000       Uiso       1.00
       C82          C  0.7500000  0.4846800  0.2514900    0.00000       Uiso       1.00
       C83          C  0.7500000  0.0154100  0.7065400    0.00000       Uiso       1.00
       C84          C  0.7500000  0.0153900  0.7633200    0.00000       Uiso       1.00
       H85          H  0.7500000  0.2805000  0.2939800    0.00000       Uiso       1.00
       H86          H  0.7500000  0.2107900  0.7767700    0.00000       Uiso       1.00
       H87          H  0.7500000  0.1742200  0.2589300    0.00000       Uiso       1.00
       H88          H  0.7500000  0.1805100  0.1996800    0.00000       Uiso       1.00
       H89          H  0.7500000  0.3215100  0.7668201    0.00000       Uiso       1.00
       H90          H  0.7500000  0.3275600  0.7078900    0.00000       Uiso       1.00
       H91          H  0.7500000  0.3062000  0.5494900    0.00000       Uiso       1.00
       H92          H  0.7500000  0.3279400  0.2983900    0.00000       Uiso       1.00
       H93          H  0.7500000  0.3837800  0.3034800    0.00000       Uiso       1.00
       H94          H  0.7500000  0.3919600  0.2007400    0.00000       Uiso       1.00
       H95          H  0.7500000  0.3363600  0.1956500    0.00000       Uiso       1.00
       H96          H  0.7500000  0.4352000  0.2304900    0.00000       Uiso       1.00
       H97          H  0.7500000  0.2073400  0.5204800    0.00000       Uiso       1.00
       H98          H  0.7500000  0.1986900  0.4619300    0.00000       Uiso       1.00
       H99          H  0.7500000  0.2947500  0.4461900    0.00000       Uiso       1.00
      H100          H  0.7500000  0.3033600  0.5048600    0.00000       Uiso       1.00
      H101          H  0.7500000  0.1963700  0.9978100    0.00000       Uiso       1.00
      H102          H  0.7500000  0.2119900  0.9407300    0.00000       Uiso       1.00
      H103          H  0.7500000  0.3053400  0.9689701    0.00000       Uiso       1.00
      H104          H  0.7500000  0.2899000  0.0258600    0.00000       Uiso       1.00
      H105          H  0.7500000  0.1653800  0.7711800    0.00000       Uiso       1.00
      H106          H  0.7500000  0.1097400  0.7659700    0.00000       Uiso       1.00
      H107          H  0.7500000  0.1180700  0.6633000    0.00000       Uiso       1.00
      H108          H  0.7500000  0.1739000  0.6684700    0.00000       Uiso       1.00
      H109          H  0.7500000  0.0684100  0.6869800    0.00000       Uiso       1.00
      H110          H  0.7500000  0.1863200  0.1549800    0.00000       Uiso       1.00
      H111          H  0.7500000  0.1961900  0.0962300    0.00000       Uiso       1.00
      H112          H  0.7500000  0.2917000  0.1142200    0.00000       Uiso       1.00
      H113          H  0.7500000  0.2822500  0.1718800    0.00000       Uiso       1.00
      H114          H  0.7500000  0.3154900  0.8118300    0.00000       Uiso       1.00
      H115          H  0.7500000  0.3056400  0.8705300    0.00000       Uiso       1.00
      H116          H  0.7500000  0.2100900  0.8525500    0.00000       Uiso       1.00
      H117          H  0.7500000  0.2195700  0.7949200    0.00000       Uiso       1.00
      H118          H  0.7500000  0.2248700  0.9033800    0.00000       Uiso       1.00
      H119          H  0.7500000  0.2768700  0.0633800    0.00000       Uiso       1.00
      H120          H  0.7500000  0.1709000  0.3044700    0.00000       Uiso       1.00
      H121          H  0.7500000  0.1688000  0.3640600    0.00000       Uiso       1.00
      H122          H  0.7500000  0.2658300  0.3676300    0.00000       Uiso       1.00
      H123          H  0.7500000  0.2679800  0.3093700    0.00000       Uiso       1.00
      H124          H  0.7500000  0.1958200  0.4173400    0.00000       Uiso       1.00
      H125          H  0.7500000  0.3308700  0.6623700    0.00000       Uiso       1.00
      H126          H  0.7500000  0.3330500  0.6027900    0.00000       Uiso       1.00
      H127          H  0.7500000  0.2360300  0.5990500    0.00000       Uiso       1.00
      H128          H  0.7500000  0.2337800  0.6573300    0.00000       Uiso       1.00
      H129          H  0.7500000  0.4719900  0.3314000    0.00000       Uiso       1.00
      H130          H  0.7500000  0.4722600  0.2282400    0.00000       Uiso       1.00
      H131          H  0.7500000  0.0279900  0.6834000    0.00000       Uiso       1.00
      H132          H  0.7500000  0.0279000  0.7865200    0.00000       Uiso       1.00
      N133          N  0.7500000  0.7215599  0.2680500    0.00000       Uiso       1.00
      N134          N  0.7500000  0.7162300  0.2149400    0.00000       Uiso       1.00
      N135          N  0.7500000  0.7766600  0.6987900    0.00000       Uiso       1.00
      N136          N  0.7500000  0.7819800  0.7519100    0.00000       Uiso       1.00
      N137          N  0.7500000  0.9376000  0.7360200    0.00000       Uiso       1.00
      N138          N  0.7500000  0.5626200  0.2799100    0.00000       Uiso       1.00
      N139          N  0.7500000  0.7404400  0.5488300    0.00000       Uiso       1.00
      N140          N  0.7500000  0.7670401  0.0470200    0.00000       Uiso       1.00
      N141          N  0.7500000  0.7312400  0.9197700    0.00000       Uiso       1.00
      N142          N  0.7500000  0.7575299  0.4178600    0.00000       Uiso       1.00
      C143          C  0.7500000  0.7499500  0.2538900    0.00000       Uiso       1.00
      C144          C  0.7500000  0.7776800  0.2684800    0.00000       Uiso       1.00
      C145          C  0.7500000  0.8025901  0.2485200    0.00000       Uiso       1.00
      C146          C  0.7500000  0.7467400  0.2223200    0.00000       Uiso       1.00
      C147          C  0.7500000  0.7707900  0.2017000    0.00000       Uiso       1.00
      C148          C  0.7500000  0.7991800  0.2154900    0.00000       Uiso       1.00
      C149          C  0.7500000  0.7029100  0.2433000    0.00000       Uiso       1.00
      C150          C  0.7500000  0.7482700  0.7129500    0.00000       Uiso       1.00
      C151          C  0.7500000  0.7205499  0.6983400    0.00000       Uiso       1.00
      C152          C  0.7500000  0.7514700  0.7445200    0.00000       Uiso       1.00
      C153          C  0.7500000  0.6990200  0.7513400    0.00000       Uiso       1.00
      C154          C  0.7500000  0.9690800  0.7350400    0.00000       Uiso       1.00
      C155          C  0.7500000  0.7953000  0.7235500    0.00000       Uiso       1.00
      C156          C  0.7500000  0.7274000  0.7651300    0.00000       Uiso       1.00
      C157          C  0.7500000  0.6956300  0.7183100    0.00000       Uiso       1.00
      C158          C  0.7500000  0.7803100  0.3031800    0.00000       Uiso       1.00
      C159          C  0.7500000  0.7179201  0.6636100    0.00000       Uiso       1.00
      C160          C  0.7500000  0.7153001  0.5634000    0.00000       Uiso       1.00
      C161          C  0.7500000  0.7319300  0.7996500    0.00000       Uiso       1.00
      C162          C  0.7500000  0.7662600  0.1671700    0.00000       Uiso       1.00
      C163          C  0.7500000  0.8274300  0.7201300    0.00000       Uiso       1.00
      C164          C  0.7500000  0.6707800  0.2467100    0.00000       Uiso       1.00
      C165          C  0.7500000  0.6576500  0.2764700    0.00000       Uiso       1.00
      C166          C  0.7500000  0.6269000  0.2792800    0.00000       Uiso       1.00
      C167          C  0.7500000  0.6092900  0.2522700    0.00000       Uiso       1.00
      C168          C  0.7500000  0.6224100  0.2226800    0.00000       Uiso       1.00
      C169          C  0.7500000  0.6530300  0.2198900    0.00000       Uiso       1.00
      C170          C  0.7500000  0.5771700  0.2537700    0.00000       Uiso       1.00
      C171          C  0.7500000  0.7442300  0.5157100    0.00000       Uiso       1.00
      C172          C  0.7500000  0.7730000  0.5037900    0.00000       Uiso       1.00
      C173          C  0.7500000  0.7778099  0.4715200    0.00000       Uiso       1.00
      C174          C  0.7500000  0.7536899  0.4509700    0.00000       Uiso       1.00
      C175          C  0.7500000  0.7249100  0.4628900    0.00000       Uiso       1.00
      C176          C  0.7500000  0.7201000  0.4951700    0.00000       Uiso       1.00
      C177          C  0.7500000  0.7578400  0.0149500    0.00000       Uiso       1.00
      C178          C  0.7500000  0.7791901  0.9914000    0.00000       Uiso       1.00
      C179          C  0.7500000  0.7705900  0.9600200    0.00000       Uiso       1.00
      C180          C  0.7500000  0.7404500  0.9518300    0.00000       Uiso       1.00
      C181          C  0.7500000  0.7191100  0.9753800    0.00000       Uiso       1.00
      C182          C  0.7500000  0.7277100  0.0067600    0.00000       Uiso       1.00
      C183          C  0.7500000  0.7553900  0.1023500    0.00000       Uiso       1.00
      C184          C  0.7500000  0.8452000  0.7469300    0.00000       Uiso       1.00
      C185          C  0.7500000  0.8758100  0.7440800    0.00000       Uiso       1.00
      C186          C  0.7500000  0.8889500  0.7143600    0.00000       Uiso       1.00
      C187          C  0.7500000  0.8712700  0.6875100    0.00000       Uiso       1.00
      C188          C  0.7500000  0.8405300  0.6903700    0.00000       Uiso       1.00
      C189          C  0.7500000  0.9210700  0.7112600    0.00000       Uiso       1.00
      C190          C  0.7500000  0.7899900  0.1459100    0.00000       Uiso       1.00
      C191          C  0.7500000  0.7845800  0.1134900    0.00000       Uiso       1.00
      C192          C  0.7500000  0.7319900  0.1233000    0.00000       Uiso       1.00
      C193          C  0.7500000  0.7374300  0.1551900    0.00000       Uiso       1.00
      C194          C  0.7500000  0.7082000  0.8209000    0.00000       Uiso       1.00
      C195          C  0.7500000  0.7136300  0.8533199    0.00000       Uiso       1.00
      C196          C  0.7500000  0.7428401  0.8644400    0.00000       Uiso       1.00
      C197          C  0.7500000  0.7662200  0.8434900    0.00000       Uiso       1.00
      C198          C  0.7500000  0.7607600  0.8116100    0.00000       Uiso       1.00
      C199          C  0.7500000  0.7505701  0.8975200    0.00000       Uiso       1.00
      C200          C  0.7500000  0.7476900  0.0692600    0.00000       Uiso       1.00
      C201          C  0.7500000  0.8077500  0.3186400    0.00000       Uiso       1.00
      C202          C  0.7500000  0.8089300  0.3515900    0.00000       Uiso       1.00
      C203          C  0.7500000  0.7826800  0.3690600    0.00000       Uiso       1.00
      C204          C  0.7500000  0.7555900  0.3535800    0.00000       Uiso       1.00
      C205          C  0.7500000  0.7545500  0.3212900    0.00000       Uiso       1.00
      C206          C  0.7500000  0.7827100  0.4033600    0.00000       Uiso       1.00
      C207          C  0.7500000  0.6904700  0.6481700    0.00000       Uiso       1.00
      C208          C  0.7500000  0.6892400  0.6152300    0.00000       Uiso       1.00
      C209          C  0.7500000  0.7154500  0.5977000    0.00000       Uiso       1.00
      C210          C  0.7500000  0.7425700  0.6131400    0.00000       Uiso       1.00
      C211          C  0.7500000  0.7436600  0.6454600    0.00000       Uiso       1.00
      C212          C  0.7500000  0.5310100  0.2798400    0.00000       Uiso       1.00
      C213          C  0.7500000  0.5154800  0.3082300    0.00000       Uiso       1.00
      C214          C  0.7500000  0.5153200  0.2514900    0.00000       Uiso       1.00
      C215          C  0.7500000  0.9845899  0.7065400    0.00000       Uiso       1.00
      C216          C  0.7500000  0.9846100  0.7633200    0.00000       Uiso       1.00
      H217          H  0.7500000  0.7195000  0.2939800    0.00000       Uiso       1.00
      H218          H  0.7500000  0.7892100  0.7767700    0.00000       Uiso       1.00
      H219          H  0.7500000  0.8257800  0.2589300    0.00000       Uiso       1.00
      H220          H  0.7500000  0.8194900  0.1996800    0.00000       Uiso       1.00
      H221          H  0.7500000  0.6784900  0.7668201    0.00000       Uiso       1.00
      H222          H  0.7500000  0.6724400  0.7078900    0.00000       Uiso       1.00
      H223          H  0.7500000  0.6938000  0.5494900    0.00000       Uiso       1.00
      H224          H  0.7500000  0.6720600  0.2983900    0.00000       Uiso       1.00
      H225          H  0.7500000  0.6162200  0.3034800    0.00000       Uiso       1.00
      H226          H  0.7500000  0.6080400  0.2007400    0.00000       Uiso       1.00
      H227          H  0.7500000  0.6636400  0.1956500    0.00000       Uiso       1.00
      H228          H  0.7500000  0.5648000  0.2304900    0.00000       Uiso       1.00
      H229          H  0.7500000  0.7926599  0.5204800    0.00000       Uiso       1.00
      H230          H  0.7500000  0.8013100  0.4619300    0.00000       Uiso       1.00
      H231          H  0.7500000  0.7052500  0.4461900    0.00000       Uiso       1.00
      H232          H  0.7500000  0.6966400  0.5048600    0.00000       Uiso       1.00
      H233          H  0.7500000  0.8036300  0.9978100    0.00000       Uiso       1.00
      H234          H  0.7500000  0.7880100  0.9407300    0.00000       Uiso       1.00
      H235          H  0.7500000  0.6946600  0.9689701    0.00000       Uiso       1.00
      H236          H  0.7500000  0.7101001  0.0258600    0.00000       Uiso       1.00
      H237          H  0.7500000  0.8346200  0.7711800    0.00000       Uiso       1.00
      H238          H  0.7500000  0.8902600  0.7659700    0.00000       Uiso       1.00
      H239          H  0.7500000  0.8819300  0.6633000    0.00000       Uiso       1.00
      H240          H  0.7500000  0.8261001  0.6684700    0.00000       Uiso       1.00
      H241          H  0.7500000  0.9315900  0.6869800    0.00000       Uiso       1.00
      H242          H  0.7500000  0.8136800  0.1549800    0.00000       Uiso       1.00
      H243          H  0.7500000  0.8038099  0.0962300    0.00000       Uiso       1.00
      H244          H  0.7500000  0.7082999  0.1142200    0.00000       Uiso       1.00
      H245          H  0.7500000  0.7177500  0.1718800    0.00000       Uiso       1.00
      H246          H  0.7500000  0.6845100  0.8118300    0.00000       Uiso       1.00
      H247          H  0.7500000  0.6943600  0.8705300    0.00000       Uiso       1.00
      H248          H  0.7500000  0.7899100  0.8525500    0.00000       Uiso       1.00
      H249          H  0.7500000  0.7804300  0.7949200    0.00000       Uiso       1.00
      H250          H  0.7500000  0.7751300  0.9033800    0.00000       Uiso       1.00
      H251          H  0.7500000  0.7231300  0.0633800    0.00000       Uiso       1.00
      H252          H  0.7500000  0.8291001  0.3044700    0.00000       Uiso       1.00
      H253          H  0.7500000  0.8312000  0.3640600    0.00000       Uiso       1.00
      H254          H  0.7500000  0.7341700  0.3676300    0.00000       Uiso       1.00
      H255          H  0.7500000  0.7320200  0.3093700    0.00000       Uiso       1.00
      H256          H  0.7500000  0.8041800  0.4173400    0.00000       Uiso       1.00
      H257          H  0.7500000  0.6691300  0.6623700    0.00000       Uiso       1.00
      H258          H  0.7500000  0.6669500  0.6027900    0.00000       Uiso       1.00
      H259          H  0.7500000  0.7639700  0.5990500    0.00000       Uiso       1.00
      H260          H  0.7500000  0.7662200  0.6573300    0.00000       Uiso       1.00
      H261          H  0.7500000  0.5280100  0.3314000    0.00000       Uiso       1.00
      H262          H  0.7500000  0.5277400  0.2282400    0.00000       Uiso       1.00
      H263          H  0.7500000  0.9720101  0.6834000    0.00000       Uiso       1.00
      H264          H  0.7500000  0.9721000  0.7865200    0.00000       Uiso       1.00
      N265          N  0.2500000  0.2784400  0.7319500    0.00000       Uiso       1.00
      N266          N  0.2500000  0.2837700  0.7850600    0.00000       Uiso       1.00
      N267          N  0.2500000  0.2233400  0.3012100    0.00000       Uiso       1.00
      N268          N  0.2500000  0.2180200  0.2480900    0.00000       Uiso       1.00
      N269          N  0.2500000  0.0624000  0.2639800    0.00000       Uiso       1.00
      N270          N  0.2500000  0.4373800  0.7200900    0.00000       Uiso       1.00
      N271          N  0.2500000  0.2595600  0.4511700    0.00000       Uiso       1.00
      N272          N  0.2500000  0.2329600  0.9529800    0.00000       Uiso       1.00
      N273          N  0.2500000  0.2687600  0.0802300    0.00000       Uiso       1.00
      N274          N  0.2500000  0.2424700  0.5821400    0.00000       Uiso       1.00
      C275          C  0.2500000  0.2500500  0.7461100    0.00000       Uiso       1.00
      C276          C  0.2500000  0.2223200  0.7315200    0.00000       Uiso       1.00
      C277          C  0.2500000  0.1974100  0.7514800    0.00000       Uiso       1.00
      C278          C  0.2500000  0.2532600  0.7776800    0.00000       Uiso       1.00
      C279          C  0.2500000  0.2292100  0.7983001    0.00000       Uiso       1.00
      C280          C  0.2500000  0.2008200  0.7845100    0.00000       Uiso       1.00
      C281          C  0.2500000  0.2970900  0.7567000    0.00000       Uiso       1.00
      C282          C  0.2500000  0.2517300  0.2870500    0.00000       Uiso       1.00
      C283          C  0.2500000  0.2794500  0.3016600    0.00000       Uiso       1.00
      C284          C  0.2500000  0.2485300  0.2554800    0.00000       Uiso       1.00
      C285          C  0.2500000  0.3009800  0.2486600    0.00000       Uiso       1.00
      C286          C  0.2500000  0.0309200  0.2649600    0.00000       Uiso       1.00
      C287          C  0.2500000  0.2047000  0.2764500    0.00000       Uiso       1.00
      C288          C  0.2500000  0.2726000  0.2348700    0.00000       Uiso       1.00
      C289          C  0.2500000  0.3043700  0.2816900    0.00000       Uiso       1.00
      C290          C  0.2500000  0.2196900  0.6968200    0.00000       Uiso       1.00
      C291          C  0.2500000  0.2820800  0.3363900    0.00000       Uiso       1.00
      C292          C  0.2500000  0.2847000  0.4366000    0.00000       Uiso       1.00
      C293          C  0.2500000  0.2680700  0.2003500    0.00000       Uiso       1.00
      C294          C  0.2500000  0.2337400  0.8328300    0.00000       Uiso       1.00
      C295          C  0.2500000  0.1725700  0.2798700    0.00000       Uiso       1.00
      C296          C  0.2500000  0.3292200  0.7532901    0.00000       Uiso       1.00
      C297          C  0.2500000  0.3423500  0.7235300    0.00000       Uiso       1.00
      C298          C  0.2500000  0.3731000  0.7207200    0.00000       Uiso       1.00
      C299          C  0.2500000  0.3907100  0.7477300    0.00000       Uiso       1.00
      C300          C  0.2500000  0.3775900  0.7773200    0.00000       Uiso       1.00
      C301          C  0.2500000  0.3469700  0.7801100    0.00000       Uiso       1.00
      C302          C  0.2500000  0.4228300  0.7462300    0.00000       Uiso       1.00
      C303          C  0.2500000  0.2557700  0.4842900    0.00000       Uiso       1.00
      C304          C  0.2500000  0.2270000  0.4962100    0.00000       Uiso       1.00
      C305          C  0.2500000  0.2221900  0.5284800    0.00000       Uiso       1.00
      C306          C  0.2500000  0.2463100  0.5490300    0.00000       Uiso       1.00
      C307          C  0.2500000  0.2750900  0.5371100    0.00000       Uiso       1.00
      C308          C  0.2500000  0.2799000  0.5048300    0.00000       Uiso       1.00
      C309          C  0.2500000  0.2421600  0.9850500    0.00000       Uiso       1.00
      C310          C  0.2500000  0.2208100  0.0086000    0.00000       Uiso       1.00
      C311          C  0.2500000  0.2294100  0.0399800    0.00000       Uiso       1.00
      C312          C  0.2500000  0.2595500  0.0481700    0.00000       Uiso       1.00
      C313          C  0.2500000  0.2808900  0.0246200    0.00000       Uiso       1.00
      C314          C  0.2500000  0.2722900  0.9932399    0.00000       Uiso       1.00
      C315          C  0.2500000  0.2446100  0.8976501    0.00000       Uiso       1.00
      C316          C  0.2500000  0.1548000  0.2530700    0.00000       Uiso       1.00
      C317          C  0.2500000  0.1241900  0.2559200    0.00000       Uiso       1.00
      C318          C  0.2500000  0.1110500  0.2856400    0.00000       Uiso       1.00
      C319          C  0.2500000  0.1287300  0.3124900    0.00000       Uiso       1.00
      C320          C  0.2500000  0.1594700  0.3096300    0.00000       Uiso       1.00
      C321          C  0.2500000  0.0789300  0.2887400    0.00000       Uiso       1.00
      C322          C  0.2500000  0.2100100  0.8540900    0.00000       Uiso       1.00
      C323          C  0.2500000  0.2154200  0.8865100    0.00000       Uiso       1.00
      C324          C  0.2500000  0.2680100  0.8767000    0.00000       Uiso       1.00
      C325          C  0.2500000  0.2625700  0.8448101    0.00000       Uiso       1.00
      C326          C  0.2500000  0.2918000  0.1791000    0.00000       Uiso       1.00
      C327          C  0.2500000  0.2863700  0.1466800    0.00000       Uiso       1.00
      C328          C  0.2500000  0.2571600  0.1355600    0.00000       Uiso       1.00
      C329          C  0.2500000  0.2337800  0.1565100    0.00000       Uiso       1.00
      C330          C  0.2500000  0.2392400  0.1883900    0.00000       Uiso       1.00
      C331          C  0.2500000  0.2494300  0.1024800    0.00000       Uiso       1.00
      C332          C  0.2500000  0.2523100  0.9307400    0.00000       Uiso       1.00
      C333          C  0.2500000  0.1922500  0.6813600    0.00000       Uiso       1.00
      C334          C  0.2500000  0.1910700  0.6484100    0.00000       Uiso       1.00
      C335          C  0.2500000  0.2173200  0.6309400    0.00000       Uiso       1.00
      C336          C  0.2500000  0.2444100  0.6464200    0.00000       Uiso       1.00
      C337          C  0.2500000  0.2454500  0.6787100    0.00000       Uiso       1.00
      C338          C  0.2500000  0.2172900  0.5966400    0.00000       Uiso       1.00
      C339          C  0.2500000  0.3095300  0.3518300    0.00000       Uiso       1.00
      C340          C  0.2500000  0.3107600  0.3847700    0.00000       Uiso       1.00
      C341          C  0.2500000  0.2845500  0.4023000    0.00000       Uiso       1.00
      C342          C  0.2500000  0.2574300  0.3868600    0.00000       Uiso       1.00
      C343          C  0.2500000  0.2563400  0.3545400    0.00000       Uiso       1.00
      C344          C  0.2500000  0.4689900  0.7201600    0.00000       Uiso       1.00
      C345          C  0.2500000  0.4845200  0.6917700    0.00000       Uiso       1.00
      C346          C  0.2500000  0.4846800  0.7485100    0.00000       Uiso       1.00
      C347          C  0.2500000  0.0154100  0.2934600    0.00000       Uiso       1.00
      C348          C  0.2500000  0.0153900  0.2366800    0.00000       Uiso       1.00
      H349          H  0.2500000  0.2805000  0.7060200    0.00000       Uiso       1.00
      H350          H  0.2500000  0.2107900  0.2232300    0.00000       Uiso       1.00
      H351          H  0.2500000  0.1742200  0.7410700    0.00000       Uiso       1.00
      H352          H  0.2500000  0.1805100  0.8003200    0.00000       Uiso       1.00
      H353          H  0.2500000  0.3215100  0.2331800    0.00000       Uiso       1.00
      H354          H  0.2500000  0.3275600  0.2921100    0.00000       Uiso       1.00
      H355          H  0.2500000  0.3062000  0.4505100    0.00000       Uiso       1.00
      H356          H  0.2500000  0.3279400  0.7016100    0.00000       Uiso       1.00
      H357          H  0.2500000  0.3837800  0.6965200    0.00000       Uiso       1.00
      H358          H  0.2500000  0.3919600  0.7992600    0.00000       Uiso       1.00
      H359          H  0.2500000  0.3363600  0.8043500    0.00000       Uiso       1.00
      H360          H  0.2500000  0.4352000  0.7695099    0.00000       Uiso       1.00
      H361          H  0.2500000  0.2073400  0.4795200    0.00000       Uiso       1.00
      H362          H  0.2500000  0.1986900  0.5380700    0.00000       Uiso       1.00
      H363          H  0.2500000  0.2947500  0.5538100    0.00000       Uiso       1.00
      H364          H  0.2500000  0.3033600  0.4951400    0.00000       Uiso       1.00
      H365          H  0.2500000  0.1963700  0.0021900    0.00000       Uiso       1.00
      H366          H  0.2500000  0.2119900  0.0592700    0.00000       Uiso       1.00
      H367          H  0.2500000  0.3053400  0.0310300    0.00000       Uiso       1.00
      H368          H  0.2500000  0.2899000  0.9741400    0.00000       Uiso       1.00
      H369          H  0.2500000  0.1653800  0.2288200    0.00000       Uiso       1.00
      H370          H  0.2500000  0.1097400  0.2340300    0.00000       Uiso       1.00
      H371          H  0.2500000  0.1180700  0.3367000    0.00000       Uiso       1.00
      H372          H  0.2500000  0.1739000  0.3315300    0.00000       Uiso       1.00
      H373          H  0.2500000  0.0684100  0.3130200    0.00000       Uiso       1.00
      H374          H  0.2500000  0.1863200  0.8450200    0.00000       Uiso       1.00
      H375          H  0.2500000  0.1961900  0.9037700    0.00000       Uiso       1.00
      H376          H  0.2500000  0.2917000  0.8857800    0.00000       Uiso       1.00
      H377          H  0.2500000  0.2822500  0.8281200    0.00000       Uiso       1.00
      H378          H  0.2500000  0.3154900  0.1881700    0.00000       Uiso       1.00
      H379          H  0.2500000  0.3056400  0.1294700    0.00000       Uiso       1.00
      H380          H  0.2500000  0.2100900  0.1474500    0.00000       Uiso       1.00
      H381          H  0.2500000  0.2195700  0.2050800    0.00000       Uiso       1.00
      H382          H  0.2500000  0.2248700  0.0966200    0.00000       Uiso       1.00
      H383          H  0.2500000  0.2768700  0.9366199    0.00000       Uiso       1.00
      H384          H  0.2500000  0.1709000  0.6955300    0.00000       Uiso       1.00
      H385          H  0.2500000  0.1688000  0.6359400    0.00000       Uiso       1.00
      H386          H  0.2500000  0.2658300  0.6323700    0.00000       Uiso       1.00
      H387          H  0.2500000  0.2679800  0.6906300    0.00000       Uiso       1.00
      H388          H  0.2500000  0.1958200  0.5826600    0.00000       Uiso       1.00
      H389          H  0.2500000  0.3308700  0.3376300    0.00000       Uiso       1.00
      H390          H  0.2500000  0.3330500  0.3972100    0.00000       Uiso       1.00
      H391          H  0.2500000  0.2360300  0.4009500    0.00000       Uiso       1.00
      H392          H  0.2500000  0.2337800  0.3426700    0.00000       Uiso       1.00
      H393          H  0.2500000  0.4719900  0.6686000    0.00000       Uiso       1.00
      H394          H  0.2500000  0.4722600  0.7717600    0.00000       Uiso       1.00
      H395          H  0.2500000  0.0279900  0.3166000    0.00000       Uiso       1.00
      H396          H  0.2500000  0.0279000  0.2134800    0.00000       Uiso       1.00
      N397          N  0.2500000  0.7215599  0.7319500    0.00000       Uiso       1.00
      N398          N  0.2500000  0.7162300  0.7850600    0.00000       Uiso       1.00
      N399          N  0.2500000  0.7766600  0.3012100    0.00000       Uiso       1.00
      N400          N  0.2500000  0.7819800  0.2480900    0.00000       Uiso       1.00
      N401          N  0.2500000  0.9376000  0.2639800    0.00000       Uiso       1.00
      N402          N  0.2500000  0.5626200  0.7200900    0.00000       Uiso       1.00
      N403          N  0.2500000  0.7404400  0.4511700    0.00000       Uiso       1.00
      N404          N  0.2500000  0.7670401  0.9529800    0.00000       Uiso       1.00
      N405          N  0.2500000  0.7312400  0.0802300    0.00000       Uiso       1.00
      N406          N  0.2500000  0.7575299  0.5821400    0.00000       Uiso       1.00
      C407          C  0.2500000  0.7499500  0.7461100    0.00000       Uiso       1.00
      C408          C  0.2500000  0.7776800  0.7315200    0.00000       Uiso       1.00
      C409          C  0.2500000  0.8025901  0.7514800    0.00000       Uiso       1.00
      C410          C  0.2500000  0.7467400  0.7776800    0.00000       Uiso       1.00
      C411          C  0.2500000  0.7707900  0.7983001    0.00000       Uiso       1.00
      C412          C  0.2500000  0.7991800  0.7845100    0.00000       Uiso       1.00
      C413          C  0.2500000  0.7029100  0.7567000    0.00000       Uiso       1.00
      C414          C  0.2500000  0.7482700  0.2870500    0.00000       Uiso       1.00
      C415          C  0.2500000  0.7205499  0.3016600    0.00000       Uiso       1.00
      C416          C  0.2500000  0.7514700  0.2554800    0.00000       Uiso       1.00
      C417          C  0.2500000  0.6990200  0.2486600    0.00000       Uiso       1.00
      C418          C  0.2500000  0.9690800  0.2649600    0.00000       Uiso       1.00
      C419          C  0.2500000  0.7953000  0.2764500    0.00000       Uiso       1.00
      C420          C  0.2500000  0.7274000  0.2348700    0.00000       Uiso       1.00
      C421          C  0.2500000  0.6956300  0.2816900    0.00000       Uiso       1.00
      C422          C  0.2500000  0.7803100  0.6968200    0.00000       Uiso       1.00
      C423          C  0.2500000  0.7179201  0.3363900    0.00000       Uiso       1.00
      C424          C  0.2500000  0.7153001  0.4366000    0.00000       Uiso       1.00
      C425          C  0.2500000  0.7319300  0.2003500    0.00000       Uiso       1.00
      C426          C  0.2500000  0.7662600  0.8328300    0.00000       Uiso       1.00
      C427          C  0.2500000  0.8274300  0.2798700    0.00000       Uiso       1.00
      C428          C  0.2500000  0.6707800  0.7532901    0.00000       Uiso       1.00
      C429          C  0.2500000  0.6576500  0.7235300    0.00000       Uiso       1.00
      C430          C  0.2500000  0.6269000  0.7207200    0.00000       Uiso       1.00
      C431          C  0.2500000  0.6092900  0.7477300    0.00000       Uiso       1.00
      C432          C  0.2500000  0.6224100  0.7773200    0.00000       Uiso       1.00
      C433          C  0.2500000  0.6530300  0.7801100    0.00000       Uiso       1.00
      C434          C  0.2500000  0.5771700  0.7462300    0.00000       Uiso       1.00
      C435          C  0.2500000  0.7442300  0.4842900    0.00000       Uiso       1.00
      C436          C  0.2500000  0.7730000  0.4962100    0.00000       Uiso       1.00
      C437          C  0.2500000  0.7778099  0.5284800    0.00000       Uiso       1.00
      C438          C  0.2500000  0.7536899  0.5490300    0.00000       Uiso       1.00
      C439          C  0.2500000  0.7249100  0.5371100    0.00000       Uiso       1.00
      C440          C  0.2500000  0.7201000  0.5048300    0.00000       Uiso       1.00
      C441          C  0.2500000  0.7578400  0.9850500    0.00000       Uiso       1.00
      C442          C  0.2500000  0.7791901  0.0086000    0.00000       Uiso       1.00
      C443          C  0.2500000  0.7705900  0.0399800    0.00000       Uiso       1.00
      C444          C  0.2500000  0.7404500  0.0481700    0.00000       Uiso       1.00
      C445          C  0.2500000  0.7191100  0.0246200    0.00000       Uiso       1.00
      C446          C  0.2500000  0.7277100  0.9932399    0.00000       Uiso       1.00
      C447          C  0.2500000  0.7553900  0.8976501    0.00000       Uiso       1.00
      C448          C  0.2500000  0.8452000  0.2530700    0.00000       Uiso       1.00
      C449          C  0.2500000  0.8758100  0.2559200    0.00000       Uiso       1.00
      C450          C  0.2500000  0.8889500  0.2856400    0.00000       Uiso       1.00
      C451          C  0.2500000  0.8712700  0.3124900    0.00000       Uiso       1.00
      C452          C  0.2500000  0.8405300  0.3096300    0.00000       Uiso       1.00
      C453          C  0.2500000  0.9210700  0.2887400    0.00000       Uiso       1.00
      C454          C  0.2500000  0.7899900  0.8540900    0.00000       Uiso       1.00
      C455          C  0.2500000  0.7845800  0.8865100    0.00000       Uiso       1.00
      C456          C  0.2500000  0.7319900  0.8767000    0.00000       Uiso       1.00
      C457          C  0.2500000  0.7374300  0.8448101    0.00000       Uiso       1.00
      C458          C  0.2500000  0.7082000  0.1791000    0.00000       Uiso       1.00
      C459          C  0.2500000  0.7136300  0.1466800    0.00000       Uiso       1.00
      C460          C  0.2500000  0.7428401  0.1355600    0.00000       Uiso       1.00
      C461          C  0.2500000  0.7662200  0.1565100    0.00000       Uiso       1.00
      C462          C  0.2500000  0.7607600  0.1883900    0.00000       Uiso       1.00
      C463          C  0.2500000  0.7505701  0.1024800    0.00000       Uiso       1.00
      C464          C  0.2500000  0.7476900  0.9307400    0.00000       Uiso       1.00
      C465          C  0.2500000  0.8077500  0.6813600    0.00000       Uiso       1.00
      C466          C  0.2500000  0.8089300  0.6484100    0.00000       Uiso       1.00
      C467          C  0.2500000  0.7826800  0.6309400    0.00000       Uiso       1.00
      C468          C  0.2500000  0.7555900  0.6464200    0.00000       Uiso       1.00
      C469          C  0.2500000  0.7545500  0.6787100    0.00000       Uiso       1.00
      C470          C  0.2500000  0.7827100  0.5966400    0.00000       Uiso       1.00
      C471          C  0.2500000  0.6904700  0.3518300    0.00000       Uiso       1.00
      C472          C  0.2500000  0.6892400  0.3847700    0.00000       Uiso       1.00
      C473          C  0.2500000  0.7154500  0.4023000    0.00000       Uiso       1.00
      C474          C  0.2500000  0.7425700  0.3868600    0.00000       Uiso       1.00
      C475          C  0.2500000  0.7436600  0.3545400    0.00000       Uiso       1.00
      C476          C  0.2500000  0.5310100  0.7201600    0.00000       Uiso       1.00
      C477          C  0.2500000  0.5154800  0.6917700    0.00000       Uiso       1.00
      C478          C  0.2500000  0.5153200  0.7485100    0.00000       Uiso       1.00
      C479          C  0.2500000  0.9845899  0.2934600    0.00000       Uiso       1.00
      C480          C  0.2500000  0.9846100  0.2366800    0.00000       Uiso       1.00
      H481          H  0.2500000  0.7195000  0.7060200    0.00000       Uiso       1.00
      H482          H  0.2500000  0.7892100  0.2232300    0.00000       Uiso       1.00
      H483          H  0.2500000  0.8257800  0.7410700    0.00000       Uiso       1.00
      H484          H  0.2500000  0.8194900  0.8003200    0.00000       Uiso       1.00
      H485          H  0.2500000  0.6784900  0.2331800    0.00000       Uiso       1.00
      H486          H  0.2500000  0.6724400  0.2921100    0.00000       Uiso       1.00
      H487          H  0.2500000  0.6938000  0.4505100    0.00000       Uiso       1.00
      H488          H  0.2500000  0.6720600  0.7016100    0.00000       Uiso       1.00
      H489          H  0.2500000  0.6162200  0.6965200    0.00000       Uiso       1.00
      H490          H  0.2500000  0.6080400  0.7992600    0.00000       Uiso       1.00
      H491          H  0.2500000  0.6636400  0.8043500    0.00000       Uiso       1.00
      H492          H  0.2500000  0.5648000  0.7695099    0.00000       Uiso       1.00
      H493          H  0.2500000  0.7926599  0.4795200    0.00000       Uiso       1.00
      H494          H  0.2500000  0.8013100  0.5380700    0.00000       Uiso       1.00
      H495          H  0.2500000  0.7052500  0.5538100    0.00000       Uiso       1.00
      H496          H  0.2500000  0.6966400  0.4951400    0.00000       Uiso       1.00
      H497          H  0.2500000  0.8036300  0.0021900    0.00000       Uiso       1.00
      H498          H  0.2500000  0.7880100  0.0592700    0.00000       Uiso       1.00
      H499          H  0.2500000  0.6946600  0.0310300    0.00000       Uiso       1.00
      H500          H  0.2500000  0.7101001  0.9741400    0.00000       Uiso       1.00
      H501          H  0.2500000  0.8346200  0.2288200    0.00000       Uiso       1.00
      H502          H  0.2500000  0.8902600  0.2340300    0.00000       Uiso       1.00
      H503          H  0.2500000  0.8819300  0.3367000    0.00000       Uiso       1.00
      H504          H  0.2500000  0.8261001  0.3315300    0.00000       Uiso       1.00
      H505          H  0.2500000  0.9315900  0.3130200    0.00000       Uiso       1.00
      H506          H  0.2500000  0.8136800  0.8450200    0.00000       Uiso       1.00
      H507          H  0.2500000  0.8038099  0.9037700    0.00000       Uiso       1.00
      H508          H  0.2500000  0.7082999  0.8857800    0.00000       Uiso       1.00
      H509          H  0.2500000  0.7177500  0.8281200    0.00000       Uiso       1.00
      H510          H  0.2500000  0.6845100  0.1881700    0.00000       Uiso       1.00
      H511          H  0.2500000  0.6943600  0.1294700    0.00000       Uiso       1.00
      H512          H  0.2500000  0.7899100  0.1474500    0.00000       Uiso       1.00
      H513          H  0.2500000  0.7804300  0.2050800    0.00000       Uiso       1.00
      H514          H  0.2500000  0.7751300  0.0966200    0.00000       Uiso       1.00
      H515          H  0.2500000  0.7231300  0.9366199    0.00000       Uiso       1.00
      H516          H  0.2500000  0.8291001  0.6955300    0.00000       Uiso       1.00
      H517          H  0.2500000  0.8312000  0.6359400    0.00000       Uiso       1.00
      H518          H  0.2500000  0.7341700  0.6323700    0.00000       Uiso       1.00
      H519          H  0.2500000  0.7320200  0.6906300    0.00000       Uiso       1.00
      H520          H  0.2500000  0.8041800  0.5826600    0.00000       Uiso       1.00
      H521          H  0.2500000  0.6691300  0.3376300    0.00000       Uiso       1.00
      H522          H  0.2500000  0.6669500  0.3972100    0.00000       Uiso       1.00
      H523          H  0.2500000  0.7639700  0.4009500    0.00000       Uiso       1.00
      H524          H  0.2500000  0.7662200  0.3426700    0.00000       Uiso       1.00
      H525          H  0.2500000  0.5280100  0.6686000    0.00000       Uiso       1.00
      H526          H  0.2500000  0.5277400  0.7717600    0.00000       Uiso       1.00
      H527          H  0.2500000  0.9720101  0.3166000    0.00000       Uiso       1.00
      H528          H  0.2500000  0.9721000  0.2134800    0.00000       Uiso       1.00
