data_TTF-Py-COF
_audit_creation_date              0000-00-00
_audit_creation_method            'LanYouShi'
_symmetry_space_group_name_H-M    'P1'
_cell_length_a                    27.3712997
_cell_length_b                    22.8199005
_cell_length_c                    4.7178001
_cell_angle_alpha                 90.0000000
_cell_angle_beta                  90.0000000
_cell_angle_gamma                 90.0000000
loop_
_atom_site_label
_atom_site_type_symbol
_atom_site_fract_x
_atom_site_fract_y
_atom_site_fract_z
_atom_site_U_iso_or_equiv
_atom_site_adp_type
_atom_site_occupancy
        C1          C  0.7273210  0.1942950  0.0887200    0.00000       Uiso       1.00
        C2          C  0.2726790  0.8057030  0.0887200    0.00000       Uiso       1.00
        C3          C  0.2726790  0.1942950 -0.0887200    0.00000       Uiso       1.00
        C4          C  0.7273210  0.8057030 -0.0887200    0.00000       Uiso       1.00
        N5          N  0.7267569  0.2464350 -0.0479200    0.00000       Uiso       1.00
        N6          N  0.2732420  0.7535630 -0.0479200    0.00000       Uiso       1.00
        N7          N  0.2732420  0.2464350  0.0479200    0.00000       Uiso       1.00
        N8          N  0.7267569  0.7535630  0.0479200    0.00000       Uiso       1.00
        C9          C  0.6959500  0.2926750 -0.0256200    0.00000       Uiso       1.00
       C10          C  0.3652670  0.6054910 -0.0119750    0.00000       Uiso       1.00
       C11          C  0.3040500  0.7073230 -0.0256200    0.00000       Uiso       1.00
       C12          C  0.6347330  0.3945070 -0.0119750    0.00000       Uiso       1.00
       C13          C  0.3040500  0.2926750  0.0256200    0.00000       Uiso       1.00
       C14          C  0.6347330  0.6054910  0.0119750    0.00000       Uiso       1.00
       C15          C  0.6959500  0.7073230  0.0256200    0.00000       Uiso       1.00
       C16          C  0.3652670  0.3945070  0.0119750    0.00000       Uiso       1.00
       C17          C  0.7036420  0.3393110 -0.2154710    0.00000       Uiso       1.00
       C18          C  0.3715510  0.6517220  0.1847630    0.00000       Uiso       1.00
       C19          C  0.2963580  0.6606870 -0.2154710    0.00000       Uiso       1.00
       C20          C  0.6284480  0.3482760  0.1847630    0.00000       Uiso       1.00
       C21          C  0.2963580  0.3393110  0.2154710    0.00000       Uiso       1.00
       C22          C  0.6284480  0.6517220 -0.1847630    0.00000       Uiso       1.00
       C23          C  0.7036420  0.6606870  0.2154710    0.00000       Uiso       1.00
       C24          C  0.3715510  0.3482760 -0.1847630    0.00000       Uiso       1.00
       C25          C  0.6732150  0.3890280 -0.2113830    0.00000       Uiso       1.00
       C26          C  0.3422090  0.7023680  0.1745790    0.00000       Uiso       1.00
       C27          C  0.3267840  0.6109700 -0.2113830    0.00000       Uiso       1.00
       C28          C  0.6577910  0.2976300  0.1745790    0.00000       Uiso       1.00
       C29          C  0.3267840  0.3890280  0.2113830    0.00000       Uiso       1.00
       C30          C  0.6577910  0.7023680 -0.1745790    0.00000       Uiso       1.00
       C31          C  0.6732150  0.6109700  0.2113830    0.00000       Uiso       1.00
       C32          C  0.3422090  0.2976300 -0.1745790    0.00000       Uiso       1.00
       H33          H  0.7001860  0.1848750  0.2306210    0.00000       Uiso       1.00
       H34          H  0.2998140  0.8151230  0.2306210    0.00000       Uiso       1.00
       H35          H  0.2998140  0.1848750 -0.2306210    0.00000       Uiso       1.00
       H36          H  0.7001860  0.8151230 -0.2306210    0.00000       Uiso       1.00
       H37          H  0.7313960  0.3369530 -0.3604610    0.00000       Uiso       1.00
       H38          H  0.3976330  0.6487560  0.3397250    0.00000       Uiso       1.00
       H39          H  0.2686030  0.6630450 -0.3604610    0.00000       Uiso       1.00
       H40          H  0.6023670  0.3512420  0.3397250    0.00000       Uiso       1.00
       H41          H  0.2686030  0.3369530  0.3604610    0.00000       Uiso       1.00
       H42          H  0.6023670  0.6487560 -0.3397250    0.00000       Uiso       1.00
       H43          H  0.7313960  0.6630450  0.3604610    0.00000       Uiso       1.00
       H44          H  0.3976330  0.3512420 -0.3397250    0.00000       Uiso       1.00
       H45          H  0.6793690  0.4213410 -0.3577820    0.00000       Uiso       1.00
       H46          H  0.3486000  0.7349870  0.3177450    0.00000       Uiso       1.00
       H47          H  0.3206310  0.5786570 -0.3577820    0.00000       Uiso       1.00
       H48          H  0.6514000  0.2650110  0.3177450    0.00000       Uiso       1.00
       H49          H  0.3206310  0.4213410  0.3577820    0.00000       Uiso       1.00
       H50          H  0.6514000  0.7349870 -0.3177450    0.00000       Uiso       1.00
       H51          H  0.6793690  0.5786570  0.3577820    0.00000       Uiso       1.00
       H52          H  0.3486000  0.2650110 -0.3177450    0.00000       Uiso       1.00
       S53          S  0.9413200  0.9369750  0.0042270    0.00000       Uiso       1.00
       S54          S  0.0586800  0.0630230  0.0042270    0.00000       Uiso       1.00
       S55          S  0.0586800  0.9369750 -0.0042270    0.00000       Uiso       1.00
       S56          S  0.9413200  0.0630230 -0.0042270    0.00000       Uiso       1.00
       C57          C  0.9752520  0.0000000  0.0000000    0.00000       Uiso       1.00
       C58          C  0.0247480  0.0000000  0.0000000    0.00000       Uiso       1.00
       C59          C  0.8837450  0.9691070  0.0048450    0.00000       Uiso       1.00
       C60          C  0.1162550  0.0308910  0.0048450    0.00000       Uiso       1.00
       C61          C  0.1162550  0.9691070 -0.0048450    0.00000       Uiso       1.00
       C62          C  0.8837450  0.0308910 -0.0048450    0.00000       Uiso       1.00
       C63          C  0.8431160  0.9305500  0.0007510    0.00000       Uiso       1.00
       C64          C  0.1568840  0.0694480  0.0007510    0.00000       Uiso       1.00
       C65          C  0.1568840  0.9305500 -0.0007510    0.00000       Uiso       1.00
       C66          C  0.8431160  0.0694480 -0.0007510    0.00000       Uiso       1.00
       C67          C  0.8421870  0.8789120  0.1677570    0.00000       Uiso       1.00
       C68          C  0.1578130  0.1210860  0.1677570    0.00000       Uiso       1.00
       C69          C  0.1578130  0.8789120 -0.1677570    0.00000       Uiso       1.00
       C70          C  0.8421870  0.1210860 -0.1677570    0.00000       Uiso       1.00
       C71          C  0.8038630  0.8379600  0.1442360    0.00000       Uiso       1.00
       C72          C  0.1961370  0.1620380  0.1442360    0.00000       Uiso       1.00
       C73          C  0.1961370  0.8379600 -0.1442360    0.00000       Uiso       1.00
       C74          C  0.8038630  0.1620380 -0.1442360    0.00000       Uiso       1.00
       C75          C  0.7647270  0.8472740 -0.0465180    0.00000       Uiso       1.00
       C76          C  0.2352730  0.1527240 -0.0465180    0.00000       Uiso       1.00
       C77          C  0.2352730  0.8472740  0.0465180    0.00000       Uiso       1.00
       C78          C  0.7647270  0.1527240  0.0465180    0.00000       Uiso       1.00
       C79          C  0.7642850  0.9000440 -0.2031510    0.00000       Uiso       1.00
       C80          C  0.2357150  0.0999540 -0.2031510    0.00000       Uiso       1.00
       C81          C  0.2357150  0.9000440  0.2031510    0.00000       Uiso       1.00
       C82          C  0.7642850  0.0999540  0.2031510    0.00000       Uiso       1.00
       C83          C  0.8026910  0.9406081 -0.1786360    0.00000       Uiso       1.00
       C84          C  0.1973090  0.0593900 -0.1786360    0.00000       Uiso       1.00
       C85          C  0.1973090  0.9406081  0.1786360    0.00000       Uiso       1.00
       C86          C  0.8026910  0.0593900  0.1786360    0.00000       Uiso       1.00
       H87          H  0.8699580  0.8703480  0.3075860    0.00000       Uiso       1.00
       H88          H  0.1300410  0.1296500  0.3075860    0.00000       Uiso       1.00
       H89          H  0.1300410  0.8703480 -0.3075860    0.00000       Uiso       1.00
       H90          H  0.8699580  0.1296500 -0.3075860    0.00000       Uiso       1.00
       H91          H  0.8050710  0.8008779  0.2662360    0.00000       Uiso       1.00
       H92          H  0.1949290  0.1991200  0.2662360    0.00000       Uiso       1.00
       H93          H  0.1949290  0.8008779 -0.2662360    0.00000       Uiso       1.00
       H94          H  0.8050710  0.1991200 -0.2662360    0.00000       Uiso       1.00
       H95          H  0.7362830  0.9091840 -0.3402620    0.00000       Uiso       1.00
       H96          H  0.2637170  0.0908140 -0.3402620    0.00000       Uiso       1.00
       H97          H  0.2637170  0.9091840  0.3402620    0.00000       Uiso       1.00
       H98          H  0.7362830  0.0908140  0.3402620    0.00000       Uiso       1.00
       H99          H  0.8011170  0.9776190 -0.2966660    0.00000       Uiso       1.00
      H100          H  0.1988820  0.0223790 -0.2966660    0.00000       Uiso       1.00
      H101          H  0.1988820  0.9776190  0.2966660    0.00000       Uiso       1.00
      H102          H  0.8011170  0.0223790  0.2966660    0.00000       Uiso       1.00
      C103          C  0.6049060  0.4455900 -0.0068630    0.00000       Uiso       1.00
      C104          C  0.5527350  0.4459350 -0.0057470    0.00000       Uiso       1.00
      C105          C  0.5254190  0.6065390  0.0109340    0.00000       Uiso       1.00
      H106          H  0.5418760  0.6464190  0.0295670    0.00000       Uiso       1.00
      C107          C  0.3950940  0.5544080 -0.0068630    0.00000       Uiso       1.00
      C108          C  0.4472650  0.5540620 -0.0057470    0.00000       Uiso       1.00
      C109          C  0.4745800  0.3934590  0.0109340    0.00000       Uiso       1.00
      H110          H  0.4581240  0.3535790  0.0295670    0.00000       Uiso       1.00
      C111          C  0.3950940  0.4455900  0.0068630    0.00000       Uiso       1.00
      C112          C  0.4472650  0.4459350  0.0057470    0.00000       Uiso       1.00
      C113          C  0.4745800  0.6065390 -0.0109340    0.00000       Uiso       1.00
      H114          H  0.4581240  0.6464190 -0.0295670    0.00000       Uiso       1.00
      C115          C  0.6049060  0.5544080  0.0068630    0.00000       Uiso       1.00
      C116          C  0.5527350  0.5540620  0.0057470    0.00000       Uiso       1.00
      C117          C  0.5254190  0.3934590 -0.0109340    0.00000       Uiso       1.00
      H118          H  0.5418760  0.3535790 -0.0295670    0.00000       Uiso       1.00
      C119          C  0.6293760  0.4999990  0.0000000    0.00000       Uiso       1.00
      C120          C  0.5263050  0.4999990  0.0000000    0.00000       Uiso       1.00
      H121          H  0.6668679  0.4999990  0.0000000    0.00000       Uiso       1.00
      C122          C  0.3706240  0.4999990  0.0000000    0.00000       Uiso       1.00
      C123          C  0.4736950  0.4999990  0.0000000    0.00000       Uiso       1.00
      H124          H  0.3331320  0.4999990  0.0000000    0.00000       Uiso       1.00
