data_ZnPc-COF
_audit_creation_date              0000-00-00
_audit_creation_method            'LanYouShi'
_symmetry_space_group_name_H-M    'P1'
_cell_length_a                    46.2444992
_cell_length_b                    3.5706999
_cell_length_c                    46.2262993
_cell_angle_alpha                 90.0000000
_cell_angle_beta                  89.9856033
_cell_angle_gamma                 90.0000000
loop_
_atom_site_label
_atom_site_type_symbol
_atom_site_fract_x
_atom_site_fract_y
_atom_site_fract_z
_atom_site_U_iso_or_equiv
_atom_site_adp_type
_atom_site_occupancy
        N1          N  0.5417510  0.5000060  0.4999780    0.00000       Uiso       1.00
        N2          N  0.5509050  0.5000060  0.5508650    0.00000       Uiso       1.00
        C3          C  0.5232550  0.5000060  0.5594470    0.00000       Uiso       1.00
        C4          C  0.5147350  0.5000060  0.5896800    0.00000       Uiso       1.00
        C5          C  0.4851560  0.5000060  0.5895790    0.00000       Uiso       1.00
        C6          C  0.4768440  0.5000060  0.5593090    0.00000       Uiso       1.00
        C7          C  0.4689260  0.5000060  0.6151680    0.00000       Uiso       1.00
        C8          C  0.4847080  0.5000060  0.6409790    0.00000       Uiso       1.00
        C9          C  0.5147670  0.5000060  0.6410930    0.00000       Uiso       1.00
       C10          C  0.5307590  0.5000060  0.6153980    0.00000       Uiso       1.00
       O11          O  0.5262460  0.5000060  0.6686430    0.00000       Uiso       1.00
       B12          B  0.4995510  0.5000060  0.6856370    0.00000       Uiso       1.00
       O13          O  0.4730020  0.5000060  0.6684370    0.00000       Uiso       1.00
       N14          N  0.5504160  0.5000060  0.9486440    0.00000       Uiso       1.00
       C15          C  0.5227100  0.5000060  0.9402581    0.00000       Uiso       1.00
       N16          N  0.4996500  0.5000060  0.9583670    0.00000       Uiso       1.00
       C17          C  0.4762900  0.5000060  0.9406179    0.00000       Uiso       1.00
       C18          C  0.4844930  0.5000060  0.9102710    0.00000       Uiso       1.00
       C19          C  0.5140720  0.5000060  0.9101080    0.00000       Uiso       1.00
       C20          C  0.5300900  0.5000060  0.8844090    0.00000       Uiso       1.00
       C21          C  0.5141260  0.5000060  0.8587340    0.00000       Uiso       1.00
       C22          C  0.4840670  0.5000060  0.8588270    0.00000       Uiso       1.00
       C23          C  0.4682580  0.5000060  0.8846630    0.00000       Uiso       1.00
       C24          C  0.4403450  0.5000060  0.9772460    0.00000       Uiso       1.00
       C25          C  0.3843500  0.5000060  0.9701580    0.00000       Uiso       1.00
       C26          C  0.3587680  0.5000060  0.9863500    0.00000       Uiso       1.00
       N27          N  0.4487260  0.5000060  0.9495111    0.00000       Uiso       1.00
       O28          O  0.5256680  0.5000060  0.8312170    0.00000       Uiso       1.00
       B29          B  0.4990290  0.5000060  0.8141740    0.00000       Uiso       1.00
       C30          C  0.4992010  0.5000060  0.7803389    0.00000       Uiso       1.00
       C31          C  0.4730460  0.5000060  0.7648860    0.00000       Uiso       1.00
       C32          C  0.5256880  0.5000060  0.7349210    0.00000       Uiso       1.00
       C33          C  0.5255410  0.5000060  0.7651100    0.00000       Uiso       1.00
       O34          O  0.4724240  0.5000060  0.8313270    0.00000       Uiso       1.00
       H35          H  0.4455520  0.5000060  0.6152160    0.00000       Uiso       1.00
       H36          H  0.5541300  0.5000060  0.6156350    0.00000       Uiso       1.00
       H37          H  0.4448840  0.5000060  0.8845990    0.00000       Uiso       1.00
       H38          H  0.5534590  0.5000060  0.8841920    0.00000       Uiso       1.00
       H39          H  0.5463690  0.5000060  0.7237049    0.00000       Uiso       1.00
       H40          H  0.5461130  0.5000060  0.7765210    0.00000       Uiso       1.00
       H41          H  0.4526650  0.5000060  0.7232850    0.00000       Uiso       1.00
       H42          H  0.4523970  0.5000060  0.7760910    0.00000       Uiso       1.00
       C43          C  0.0235840  0.5000060  0.5591510    0.00000       Uiso       1.00
       C44          C  0.0154970  0.5000060  0.5894790    0.00000       Uiso       1.00
       C45          C  0.0163320  0.5000060  0.6408730    0.00000       Uiso       1.00
       C46          C  0.0319200  0.5000060  0.6149460    0.00000       Uiso       1.00
       H47          H  0.0552970  0.5000060  0.6148250    0.00000       Uiso       1.00
       N48          N  0.0002080  0.5000060  0.5414590    0.00000       Uiso       1.00
       N49          N  0.0516550  0.5000060  0.9498180    0.00000       Uiso       1.00
       C50          C  0.0241660  0.5000060  0.9407630    0.00000       Uiso       1.00
       N51          N  0.0006900  0.5000060  0.9583631    0.00000       Uiso       1.00
       C52          C  0.9859210  0.5000060  0.5897970    0.00000       Uiso       1.00
       O53          O  0.9750190  0.5000060  0.6688570    0.00000       Uiso       1.00
       B54          B  0.0018430  0.5000060  0.6856480    0.00000       Uiso       1.00
       O55          O  0.0282440  0.5000060  0.6682390    0.00000       Uiso       1.00
       C56          C  0.0161800  0.5000060  0.9103700    0.00000       Uiso       1.00
       C57          C  0.9866040  0.5000060  0.9099990    0.00000       Uiso       1.00
       C58          C  0.9777570  0.5000060  0.9401100    0.00000       Uiso       1.00
       C59          C  0.9707950  0.5000060  0.8841749    0.00000       Uiso       1.00
       C60          C  0.0170280  0.5000060  0.8589280    0.00000       Uiso       1.00
       C61          C  0.0326260  0.5000060  0.8848840    0.00000       Uiso       1.00
       C62          C  0.9869720  0.5000060  0.8586280    0.00000       Uiso       1.00
       O63          O  0.0288710  0.5000060  0.8315050    0.00000       Uiso       1.00
       B64          B  0.0023930  0.5000060  0.8141800    0.00000       Uiso       1.00
       C65          C  0.0023440  0.5000060  0.7803520    0.00000       Uiso       1.00
       C66          C  0.9760150  0.5000060  0.7651160    0.00000       Uiso       1.00
       C67          C  0.9758730  0.5000060  0.7349470    0.00000       Uiso       1.00
       C68          C  0.0020550  0.5000060  0.7194690    0.00000       Uiso       1.00
       C69          C  0.0283680  0.5000060  0.7346860    0.00000       Uiso       1.00
       O70          O  0.9756421  0.5000060  0.8310440    0.00000       Uiso       1.00
       H71          H  0.9467190  0.5000060  0.6160100    0.00000       Uiso       1.00
       H72          H  0.9474220  0.5000060  0.8837590    0.00000       Uiso       1.00
       H73          H  0.0560040  0.5000060  0.8850390    0.00000       Uiso       1.00
       H74          H  0.9551799  0.5000060  0.7237641    0.00000       Uiso       1.00
       H75          H  0.9554180  0.5000060  0.7764930    0.00000       Uiso       1.00
       H76          H  0.0489200  0.5000060  0.7232960    0.00000       Uiso       1.00
       H77          H  0.0491600  0.5000060  0.7760970    0.00000       Uiso       1.00
       C78          C  0.4994970  0.5000060  0.7194630    0.00000       Uiso       1.00
       C79          C  0.4731980  0.5000060  0.7346860    0.00000       Uiso       1.00
       C80          C  0.0285120  0.5000060  0.7648920    0.00000       Uiso       1.00
       N81          N  0.4586710  0.5000060  0.4997470    0.00000       Uiso       1.00
       N82          N  0.4495260  0.5000060  0.4488740    0.00000       Uiso       1.00
       C83          C  0.4771800  0.5000060  0.4403080    0.00000       Uiso       1.00
       C84          C  0.4856820  0.5000060  0.4100830    0.00000       Uiso       1.00
       C85          C  0.5152570  0.5000060  0.4101600    0.00000       Uiso       1.00
       C86          C  0.5235820  0.5000060  0.4404280    0.00000       Uiso       1.00
       C87          C  0.5314620  0.5000060  0.3845530    0.00000       Uiso       1.00
       C88          C  0.5156500  0.5000060  0.3587640    0.00000       Uiso       1.00
       C89          C  0.4855890  0.5000060  0.3586810    0.00000       Uiso       1.00
       C90          C  0.4696260  0.5000060  0.3843930    0.00000       Uiso       1.00
       O91          O  0.4740880  0.5000060  0.3311440    0.00000       Uiso       1.00
       B92          B  0.5007730  0.5000060  0.3141380    0.00000       Uiso       1.00
       O93          O  0.5273230  0.5000060  0.3313010    0.00000       Uiso       1.00
       N94          N  0.4496890  0.5000060  0.0512240    0.00000       Uiso       1.00
       C95          C  0.4773830  0.5000060  0.0596090    0.00000       Uiso       1.00
       N96          N  0.5004420  0.5000060  0.0414940    0.00000       Uiso       1.00
       C97          C  0.5237940  0.5000060  0.0592360    0.00000       Uiso       1.00
       C98          C  0.5155970  0.5000060  0.0895800    0.00000       Uiso       1.00
       C99          C  0.4860170  0.5000060  0.0897700    0.00000       Uiso       1.00
      C100          C  0.4700200  0.5000060  0.1154960    0.00000       Uiso       1.00
      C101          C  0.4860230  0.5000060  0.1411410    0.00000       Uiso       1.00
      C102          C  0.5160810  0.5000060  0.1410100    0.00000       Uiso       1.00
      C103          C  0.5318580  0.5000060  0.1151610    0.00000       Uiso       1.00
      C104          C  0.5597550  0.5000060  0.0226200    0.00000       Uiso       1.00
      C105          C  0.6157220  0.5000060  0.0297470    0.00000       Uiso       1.00
      C106          C  0.6413240  0.5000060  0.0135810    0.00000       Uiso       1.00
      N107          N  0.5513610  0.5000060  0.0503490    0.00000       Uiso       1.00
      O108          O  0.4745170  0.5000060  0.1686620    0.00000       Uiso       1.00
      B109          B  0.5011740  0.5000060  0.1856610    0.00000       Uiso       1.00
      C110          C  0.5010260  0.5000060  0.2194630    0.00000       Uiso       1.00
      C111          C  0.5272000  0.5000060  0.2348810    0.00000       Uiso       1.00
      C112          C  0.4745850  0.5000060  0.2648970    0.00000       Uiso       1.00
      C113          C  0.4746980  0.5000060  0.2347180    0.00000       Uiso       1.00
      O114          O  0.5277500  0.5000060  0.1684840    0.00000       Uiso       1.00
      H115          H  0.5548400  0.5000060  0.3844770    0.00000       Uiso       1.00
      H116          H  0.4462500  0.5000060  0.3842260    0.00000       Uiso       1.00
      H117          H  0.5552350  0.5000060  0.1151610    0.00000       Uiso       1.00
      H118          H  0.4466450  0.5000060  0.1157770    0.00000       Uiso       1.00
      H119          H  0.4539060  0.5000060  0.2761190    0.00000       Uiso       1.00
      H120          H  0.4540990  0.5000060  0.2233500    0.00000       Uiso       1.00
      H121          H  0.5476530  0.5000060  0.2764140    0.00000       Uiso       1.00
      H122          H  0.5478440  0.5000060  0.2236570    0.00000       Uiso       1.00
      C123          C  0.9761651  0.5000060  0.4406270    0.00000       Uiso       1.00
      C124          C  0.9842690  0.5000060  0.4103020    0.00000       Uiso       1.00
      C125          C  0.9834880  0.5000060  0.3589090    0.00000       Uiso       1.00
      C126          C  0.9678700  0.5000060  0.3848230    0.00000       Uiso       1.00
      H127          H  0.9444930  0.5000060  0.3849330    0.00000       Uiso       1.00
      N128          N  0.9995350  0.5000060  0.4583240    0.00000       Uiso       1.00
      N129          N  0.9484630  0.5000060  0.0500150    0.00000       Uiso       1.00
      C130          C  0.9759610  0.5000060  0.0590660    0.00000       Uiso       1.00
      N131          N  0.9994240  0.5000060  0.0414660    0.00000       Uiso       1.00
      C132          C  0.0138450  0.5000060  0.4100040    0.00000       Uiso       1.00
      O133          O  0.0248420  0.5000060  0.3309790    0.00000       Uiso       1.00
      B134          B  0.9980460  0.5000060  0.3141580    0.00000       Uiso       1.00
      O135          O  0.9716140  0.5000060  0.3315270    0.00000       Uiso       1.00
      C136          C  0.9839210  0.5000060  0.0894600    0.00000       Uiso       1.00
      C137          C  0.0134970  0.5000060  0.0898280    0.00000       Uiso       1.00
      C138          C  0.0223670  0.5000060  0.0597230    0.00000       Uiso       1.00
      C139          C  0.0293030  0.5000060  0.1156550    0.00000       Uiso       1.00
      C140          C  0.9830620  0.5000060  0.1408930    0.00000       Uiso       1.00
      C141          C  0.9674710  0.5000060  0.1149400    0.00000       Uiso       1.00
      C142          C  0.0131190  0.5000060  0.1412050    0.00000       Uiso       1.00
      O143          O  0.9712010  0.5000060  0.1683050    0.00000       Uiso       1.00
      B144          B  0.9976670  0.5000060  0.1856440    0.00000       Uiso       1.00
      C145          C  0.9976711  0.5000060  0.2194690    0.00000       Uiso       1.00
      C146          C  0.0239820  0.5000060  0.2347310    0.00000       Uiso       1.00
      C147          C  0.0240940  0.5000060  0.2648990    0.00000       Uiso       1.00
      C148          C  0.9978920  0.5000060  0.2803460    0.00000       Uiso       1.00
      C149          C  0.9715970  0.5000060  0.2651080    0.00000       Uiso       1.00
      O150          O  0.0244310  0.5000060  0.1687960    0.00000       Uiso       1.00
      H151          H  0.0530740  0.5000060  0.3838310    0.00000       Uiso       1.00
      H152          H  0.0526730  0.5000060  0.1160490    0.00000       Uiso       1.00
      H153          H  0.9440901  0.5000060  0.1148060    0.00000       Uiso       1.00
      H154          H  0.0447790  0.5000060  0.2761060    0.00000       Uiso       1.00
      H155          H  0.0445880  0.5000060  0.2233770    0.00000       Uiso       1.00
      H156          H  0.9510370  0.5000060  0.2764900    0.00000       Uiso       1.00
      H157          H  0.9508471  0.5000060  0.2236920    0.00000       Uiso       1.00
      C158          C  0.5007980  0.5000060  0.2803250    0.00000       Uiso       1.00
      C159          C  0.5270850  0.5000060  0.2650660    0.00000       Uiso       1.00
      C160          C  0.9714870  0.5000060  0.2349050    0.00000       Uiso       1.00
     Zn161         Zn  0.5000560  0.5000060  0.9999310    0.00000       Uiso       1.00
     Zn162         Zn  0.0000680  0.5000060  0.9999160    0.00000       Uiso       1.00
      N163          N  0.5003250  0.5000060  0.4582980    0.00000       Uiso       1.00
      N164          N  0.5511760  0.5000060  0.4491430    0.00000       Uiso       1.00
      C165          C  0.5597340  0.5000060  0.4768020    0.00000       Uiso       1.00
      C166          C  0.5899360  0.5000060  0.4852810    0.00000       Uiso       1.00
      C167          C  0.5898590  0.5000060  0.5148690    0.00000       Uiso       1.00
      C168          C  0.5596120  0.5000060  0.5232360    0.00000       Uiso       1.00
      C169          C  0.6154500  0.5000060  0.5310530    0.00000       Uiso       1.00
      C170          C  0.6412270  0.5000060  0.5152130    0.00000       Uiso       1.00
      C171          C  0.6413100  0.5000060  0.4851400    0.00000       Uiso       1.00
      C172          C  0.6156090  0.5000060  0.4691930    0.00000       Uiso       1.00
      O173          O  0.6688360  0.5000060  0.4736070    0.00000       Uiso       1.00
      B174          B  0.6858340  0.5000060  0.5002890    0.00000       Uiso       1.00
      O175          O  0.6686800  0.5000060  0.5268730    0.00000       Uiso       1.00
      N176          N  0.9486299  0.5000060  0.4495360    0.00000       Uiso       1.00
      C177          C  0.9402469  0.5000060  0.4772470    0.00000       Uiso       1.00
      N178          N  0.9583359  0.5000060  0.5003100    0.00000       Uiso       1.00
      C179          C  0.9405860  0.5000060  0.5236770    0.00000       Uiso       1.00
      C180          C  0.9102560  0.5000060  0.5154770    0.00000       Uiso       1.00
      C181          C  0.9101090  0.5000060  0.4858860    0.00000       Uiso       1.00
      C182          C  0.8844350  0.5000060  0.4698550    0.00000       Uiso       1.00
      C183          C  0.8587750  0.5000060  0.4858270    0.00000       Uiso       1.00
      C184          C  0.8588451  0.5000060  0.5158980    0.00000       Uiso       1.00
      C185          C  0.8846510  0.5000060  0.5317200    0.00000       Uiso       1.00
      C186          C  0.9771780  0.5000060  0.5596230    0.00000       Uiso       1.00
      C187          C  0.9700890  0.5000060  0.6156320    0.00000       Uiso       1.00
      C188          C  0.9862770  0.5000060  0.6412130    0.00000       Uiso       1.00
      N189          N  0.9494560  0.5000060  0.5512500    0.00000       Uiso       1.00
      O190          O  0.8312920  0.5000060  0.4742760    0.00000       Uiso       1.00
      B191          B  0.8142460  0.5000060  0.5009120    0.00000       Uiso       1.00
      C192          C  0.7804550  0.5000060  0.5006930    0.00000       Uiso       1.00
      C193          C  0.7649751  0.5000060  0.5268430    0.00000       Uiso       1.00
      C194          C  0.7351100  0.5000060  0.4741420    0.00000       Uiso       1.00
      C195          C  0.7652800  0.5000060  0.4743170    0.00000       Uiso       1.00
      O196          O  0.8313580  0.5000060  0.5275300    0.00000       Uiso       1.00
      H197          H  0.6155180  0.5000060  0.5544340    0.00000       Uiso       1.00
      H198          H  0.6158000  0.5000060  0.4458110    0.00000       Uiso       1.00
      H199          H  0.8845811  0.5000060  0.5551090    0.00000       Uiso       1.00
      H200          H  0.8842241  0.5000060  0.4464710    0.00000       Uiso       1.00
      H201          H  0.7239261  0.5000060  0.4534460    0.00000       Uiso       1.00
      H202          H  0.7767069  0.5000060  0.4537360    0.00000       Uiso       1.00
      H203          H  0.7233920  0.5000060  0.5471980    0.00000       Uiso       1.00
      H204          H  0.7761440  0.5000060  0.5475150    0.00000       Uiso       1.00
      C205          C  0.5593140  0.5000060  0.9761900    0.00000       Uiso       1.00
      C206          C  0.5896360  0.5000060  0.9842950    0.00000       Uiso       1.00
      C207          C  0.6410240  0.5000060  0.9835151    0.00000       Uiso       1.00
      C208          C  0.6151250  0.5000060  0.9678940    0.00000       Uiso       1.00
      H209          H  0.6150600  0.5000060  0.9445090    0.00000       Uiso       1.00
      N210          N  0.5416160  0.5000060  0.9995770    0.00000       Uiso       1.00
      N211          N  0.9499880  0.5000060  0.9483320    0.00000       Uiso       1.00
      C212          C  0.9409270  0.5000060  0.9758340    0.00000       Uiso       1.00
      N213          N  0.9585110  0.5000060  0.9993030    0.00000       Uiso       1.00
      C214          C  0.5899200  0.5000060  0.0138860    0.00000       Uiso       1.00
      O215          O  0.6689530  0.5000060  0.0248670    0.00000       Uiso       1.00
      B216          B  0.6857780  0.5000060  0.9980490    0.00000       Uiso       1.00
      O217          O  0.6684010  0.5000060  0.9716180    0.00000       Uiso       1.00
      C218          C  0.9105390  0.5000060  0.9838060    0.00000       Uiso       1.00
      C219          C  0.9101450  0.5000060  0.0133920    0.00000       Uiso       1.00
      C220          C  0.9402480  0.5000060  0.0222510    0.00000       Uiso       1.00
      C221          C  0.8843060  0.5000060  0.0291920    0.00000       Uiso       1.00
      C222          C  0.8591120  0.5000060  0.9829250    0.00000       Uiso       1.00
      C223          C  0.8850799  0.5000060  0.9673430    0.00000       Uiso       1.00
      C224          C  0.8587729  0.5000060  0.0129930    0.00000       Uiso       1.00
      O225          O  0.8317100  0.5000060  0.9710439    0.00000       Uiso       1.00
      B226          B  0.8143470  0.5000060  0.9975240    0.00000       Uiso       1.00
      C227          C  0.7805090  0.5000060  0.9975460    0.00000       Uiso       1.00
      C228          C  0.7652610  0.5000060  0.0238820    0.00000       Uiso       1.00
      C229          C  0.7350910  0.5000060  0.0240240    0.00000       Uiso       1.00
      C230          C  0.7196300  0.5000060  0.9978330    0.00000       Uiso       1.00
      C231          C  0.7348690  0.5000060  0.9715090    0.00000       Uiso       1.00
      O232          O  0.8311710  0.5000060  0.0242990    0.00000       Uiso       1.00
      H233          H  0.6160620  0.5000060  0.0531260    0.00000       Uiso       1.00
      H234          H  0.8838720  0.5000060  0.0525710    0.00000       Uiso       1.00
      H235          H  0.8852490  0.5000060  0.9439610    0.00000       Uiso       1.00
      H236          H  0.7238780  0.5000060  0.0447190    0.00000       Uiso       1.00
      H237          H  0.7766300  0.5000060  0.0444810    0.00000       Uiso       1.00
      H238          H  0.7234750  0.5000060  0.9509510    0.00000       Uiso       1.00
      H239          H  0.7762870  0.5000060  0.9507170    0.00000       Uiso       1.00
      C240          C  0.7196330  0.5000060  0.5003340    0.00000       Uiso       1.00
      C241          C  0.7348040  0.5000060  0.5266590    0.00000       Uiso       1.00
      C242          C  0.7650720  0.5000060  0.9713690    0.00000       Uiso       1.00
      N243          N  0.5000990  0.5000060  0.5414510    0.00000       Uiso       1.00
      N244          N  0.4492450  0.5000060  0.5505800    0.00000       Uiso       1.00
      C245          C  0.4406960  0.5000060  0.5229140    0.00000       Uiso       1.00
      C246          C  0.4104980  0.5000060  0.5144150    0.00000       Uiso       1.00
      C247          C  0.4105500  0.5000060  0.4848250    0.00000       Uiso       1.00
      C248          C  0.4408100  0.5000060  0.4764860    0.00000       Uiso       1.00
      C249          C  0.3849310  0.5000060  0.4686460    0.00000       Uiso       1.00
      C250          C  0.3591690  0.5000060  0.4845170    0.00000       Uiso       1.00
      C251          C  0.3591460  0.5000060  0.5145890    0.00000       Uiso       1.00
      C252          C  0.3848490  0.5000060  0.5305120    0.00000       Uiso       1.00
      O253          O  0.3316680  0.5000060  0.5261740    0.00000       Uiso       1.00
      B254          B  0.3146060  0.5000060  0.4995380    0.00000       Uiso       1.00
      O255          O  0.3316830  0.5000060  0.4729160    0.00000       Uiso       1.00
      N256          N  0.0511100  0.5000060  0.5502390    0.00000       Uiso       1.00
      C257          C  0.0594870  0.5000060  0.5225290    0.00000       Uiso       1.00
      N258          N  0.0414010  0.5000060  0.4994660    0.00000       Uiso       1.00
      C259          C  0.0591590  0.5000060  0.4761060    0.00000       Uiso       1.00
      C260          C  0.0894900  0.5000060  0.4843100    0.00000       Uiso       1.00
      C261          C  0.0896160  0.5000060  0.5138970    0.00000       Uiso       1.00
      C262          C  0.1152640  0.5000060  0.5299490    0.00000       Uiso       1.00
      C263          C  0.1409310  0.5000060  0.5140030    0.00000       Uiso       1.00
      C264          C  0.1409130  0.5000060  0.4839310    0.00000       Uiso       1.00
      C265          C  0.1151120  0.5000060  0.4680850    0.00000       Uiso       1.00
      C266          C  0.0225740  0.5000060  0.4401660    0.00000       Uiso       1.00
      C267          C  0.0297040  0.5000060  0.3841910    0.00000       Uiso       1.00
      C268          C  0.0135440  0.5000060  0.3586020    0.00000       Uiso       1.00
      N269          N  0.0502920  0.5000060  0.4485380    0.00000       Uiso       1.00
      O270          O  0.1683750  0.5000060  0.5256070    0.00000       Uiso       1.00
      B271          B  0.1854840  0.5000060  0.4990150    0.00000       Uiso       1.00
      C272          C  0.2192680  0.5000060  0.4994600    0.00000       Uiso       1.00
      C273          C  0.2350580  0.5000060  0.4734820    0.00000       Uiso       1.00
      C274          C  0.2657960  0.5000060  0.5261050    0.00000       Uiso       1.00
      C275          C  0.2340580  0.5000060  0.5259510    0.00000       Uiso       1.00
      O276          O  0.1684380  0.5000060  0.4723510    0.00000       Uiso       1.00
      H277          H  0.3848250  0.5000060  0.4452560    0.00000       Uiso       1.00
      H278          H  0.3846930  0.5000060  0.5538950    0.00000       Uiso       1.00
      H279          H  0.1151770  0.5000060  0.4446980    0.00000       Uiso       1.00
      H280          H  0.1154550  0.5000060  0.5533350    0.00000       Uiso       1.00
      H281          H  0.2770610  0.5000060  0.5467530    0.00000       Uiso       1.00
      H282          H  0.2225890  0.5000060  0.5464990    0.00000       Uiso       1.00
      H283          H  0.2765430  0.5000060  0.4530060    0.00000       Uiso       1.00
      H284          H  0.2240040  0.5000060  0.4527420    0.00000       Uiso       1.00
      C285          C  0.4407950  0.5000060  0.0236780    0.00000       Uiso       1.00
      C286          C  0.4104780  0.5000060  0.0155820    0.00000       Uiso       1.00
      C287          C  0.3590910  0.5000060  0.0164150    0.00000       Uiso       1.00
      C288          C  0.3850100  0.5000060  0.0320080    0.00000       Uiso       1.00
      H289          H  0.3851370  0.5000060  0.0553960    0.00000       Uiso       1.00
      N290          N  0.4584930  0.5000060  0.0002890    0.00000       Uiso       1.00
      N291          N  0.0501230  0.5000060  0.0515050    0.00000       Uiso       1.00
      C292          C  0.0592050  0.5000060  0.0240120    0.00000       Uiso       1.00
      N293          N  0.0416250  0.5000060  0.0005340    0.00000       Uiso       1.00
      C294          C  0.4101740  0.5000060  0.9859939    0.00000       Uiso       1.00
      O295          O  0.3311400  0.5000060  0.9750801    0.00000       Uiso       1.00
      B296          B  0.3143260  0.5000060  0.0019060    0.00000       Uiso       1.00
      O297          O  0.3317190  0.5000060  0.0283230    0.00000       Uiso       1.00
      C298          C  0.0895970  0.5000060  0.0160470    0.00000       Uiso       1.00
      C299          C  0.0899950  0.5000060  0.9864579    0.00000       Uiso       1.00
      C300          C  0.0598850  0.5000060  0.9775890    0.00000       Uiso       1.00
      C301          C  0.1158410  0.5000060  0.9706670    0.00000       Uiso       1.00
      C302          C  0.1410230  0.5000060  0.0169420    0.00000       Uiso       1.00
      C303          C  0.1150570  0.5000060  0.0325190    0.00000       Uiso       1.00
      C304          C  0.1413680  0.5000060  0.9868760    0.00000       Uiso       1.00
      O305          O  0.1684170  0.5000060  0.0288260    0.00000       Uiso       1.00
      B306          B  0.1857880  0.5000060  0.0023640    0.00000       Uiso       1.00
      C307          C  0.2196180  0.5000060  0.0023600    0.00000       Uiso       1.00
      C308          C  0.2348810  0.5000060  0.9760340    0.00000       Uiso       1.00
      C309          C  0.2650430  0.5000060  0.9759039    0.00000       Uiso       1.00
      C310          C  0.2804990  0.5000060  0.0021000    0.00000       Uiso       1.00
      C311          C  0.2652530  0.5000060  0.0284140    0.00000       Uiso       1.00
      O312          O  0.1689690  0.5000060  0.9755800    0.00000       Uiso       1.00
      H313          H  0.3839700  0.5000060  0.9467780    0.00000       Uiso       1.00
      H314          H  0.1162820  0.5000060  0.9472880    0.00000       Uiso       1.00
      H315          H  0.1148970  0.5000060  0.0559080    0.00000       Uiso       1.00
      H316          H  0.2762340  0.5000060  0.9552040    0.00000       Uiso       1.00
      H317          H  0.2235250  0.5000060  0.9554250    0.00000       Uiso       1.00
      H318          H  0.2766190  0.5000060  0.0489760    0.00000       Uiso       1.00
      H319          H  0.2238340  0.5000060  0.0492000    0.00000       Uiso       1.00
      C320          C  0.2808300  0.5000060  0.4997590    0.00000       Uiso       1.00
      C321          C  0.2652870  0.5000060  0.4736350    0.00000       Uiso       1.00
      C322          C  0.2350530  0.5000060  0.0285460    0.00000       Uiso       1.00
     Zn323         Zn  0.9998690  0.5000060  0.4998880    0.00000       Uiso       1.00
     Zn324         Zn  0.5002140  0.5000060  0.4998700    0.00000       Uiso       1.00
