data_ZnPc-DPB
_audit_creation_date              0000-00-00
_audit_creation_method            'LanYouShi'
_symmetry_space_group_name_H-M    'P1'
_cell_length_a                    32.1829987
_cell_length_b                    32.1829987
_cell_length_c                    3.3559999
_cell_angle_alpha                 90.0000000
_cell_angle_beta                  90.0000000
_cell_angle_gamma                 90.0000000
loop_
_atom_site_label
_atom_site_type_symbol
_atom_site_fract_x
_atom_site_fract_y
_atom_site_fract_z
_atom_site_U_iso_or_equiv
_atom_site_adp_type
_atom_site_occupancy
       Zn1         Zn  0.5000000  0.5000000  0.5000000    0.00000       Uiso       1.00
        C2          C  0.0204910  0.5000000  0.5000000    0.00000       Uiso       1.00
        C3          C  0.0576980  0.5000000  0.5000000    0.00000       Uiso       1.00
        C4          C  0.1020750  0.5000000  0.5000000    0.00000       Uiso       1.00
        C5          C  0.1885280  0.5000000  0.5000000    0.00000       Uiso       1.00
        B6          B  0.2366520  0.5000000  0.5000000    0.00000       Uiso       1.00
        N7          N  0.4403210  0.5000000  0.5000000    0.00000       Uiso       1.00
        C8          C  0.9795090  0.5000000  0.5000000    0.00000       Uiso       1.00
        C9          C  0.9423020  0.5000000  0.5000000    0.00000       Uiso       1.00
       C10          C  0.8979250  0.5000000  0.5000000    0.00000       Uiso       1.00
       C11          C  0.8114720  0.5000000  0.5000000    0.00000       Uiso       1.00
       B12          B  0.7633480  0.5000000  0.5000000    0.00000       Uiso       1.00
       N13          N  0.5596790  0.5000000  0.5000000    0.00000       Uiso       1.00
       C14          C  0.5000000  0.0204910  0.5000000    0.00000       Uiso       1.00
       C15          C  0.5000000  0.0576980  0.5000000    0.00000       Uiso       1.00
       C16          C  0.5000000  0.1020750  0.5000000    0.00000       Uiso       1.00
       C17          C  0.5000000  0.1885280  0.5000000    0.00000       Uiso       1.00
       B18          B  0.5000000  0.2366520  0.5000000    0.00000       Uiso       1.00
       N19          N  0.5000000  0.4403210  0.5000000    0.00000       Uiso       1.00
       C20          C  0.5000000  0.9795090  0.5000000    0.00000       Uiso       1.00
       C21          C  0.5000000  0.9423020  0.5000000    0.00000       Uiso       1.00
       C22          C  0.5000000  0.8979250  0.5000000    0.00000       Uiso       1.00
       C23          C  0.5000000  0.8114720  0.5000000    0.00000       Uiso       1.00
       B24          B  0.5000000  0.7633480  0.5000000    0.00000       Uiso       1.00
       N25          N  0.5000000  0.5596790  0.5000000    0.00000       Uiso       1.00
       C26          C  0.1237480  0.4647390  0.5000000    0.00000       Uiso       1.00
       C27          C  0.1668070  0.4647390  0.5000000    0.00000       Uiso       1.00
       C28          C  0.3006420  0.4805510  0.5000000    0.00000       Uiso       1.00
       C29          C  0.3374060  0.4578600  0.5000000    0.00000       Uiso       1.00
       C30          C  0.3738230  0.4805510  0.5000000    0.00000       Uiso       1.00
       C31          C  0.4144780  0.4690420  0.5000000    0.00000       Uiso       1.00
       O32          O  0.2613150  0.4641370  0.5000000    0.00000       Uiso       1.00
       H33          H  0.6636340  0.4224530  0.5000000    0.00000       Uiso       1.00
       H34          H  0.8931120  0.5664130  0.5000000    0.00000       Uiso       1.00
       H35          H  0.8154820  0.5659380  0.5000000    0.00000       Uiso       1.00
       C36          C  0.8762520  0.5352610  0.5000000    0.00000       Uiso       1.00
       C37          C  0.8331930  0.5352610  0.5000000    0.00000       Uiso       1.00
       C38          C  0.6993580  0.5194490  0.5000000    0.00000       Uiso       1.00
       C39          C  0.6625940  0.5421400  0.5000000    0.00000       Uiso       1.00
       C40          C  0.6261770  0.5194490  0.5000000    0.00000       Uiso       1.00
       C41          C  0.5855220  0.5309580  0.5000000    0.00000       Uiso       1.00
       O42          O  0.7386850  0.5358630  0.5000000    0.00000       Uiso       1.00
       H43          H  0.3363660  0.5775470  0.5000000    0.00000       Uiso       1.00
       H44          H  0.1068880  0.4335870  0.5000000    0.00000       Uiso       1.00
       H45          H  0.1845180  0.4340620  0.5000000    0.00000       Uiso       1.00
       C46          C  0.5352610  0.1237480  0.5000000    0.00000       Uiso       1.00
       C47          C  0.5352610  0.1668070  0.5000000    0.00000       Uiso       1.00
       C48          C  0.5194490  0.3006420  0.5000000    0.00000       Uiso       1.00
       C49          C  0.5421400  0.3374060  0.5000000    0.00000       Uiso       1.00
       C50          C  0.5194490  0.3738230  0.5000000    0.00000       Uiso       1.00
       C51          C  0.5309580  0.4144780  0.5000000    0.00000       Uiso       1.00
       O52          O  0.5358630  0.2613150  0.5000000    0.00000       Uiso       1.00
       H53          H  0.5775470  0.6636340  0.5000000    0.00000       Uiso       1.00
       H54          H  0.4335870  0.8931120  0.5000000    0.00000       Uiso       1.00
       H55          H  0.4340620  0.8154820  0.5000000    0.00000       Uiso       1.00
       C56          C  0.4647390  0.8762520  0.5000000    0.00000       Uiso       1.00
       C57          C  0.4647390  0.8331930  0.5000000    0.00000       Uiso       1.00
       C58          C  0.4805510  0.6993580  0.5000000    0.00000       Uiso       1.00
       C59          C  0.4578600  0.6625940  0.5000000    0.00000       Uiso       1.00
       C60          C  0.4805510  0.6261770  0.5000000    0.00000       Uiso       1.00
       C61          C  0.4690420  0.5855220  0.5000000    0.00000       Uiso       1.00
       O62          O  0.4641370  0.7386850  0.5000000    0.00000       Uiso       1.00
       H63          H  0.4224530  0.3363660  0.5000000    0.00000       Uiso       1.00
       H64          H  0.5664130  0.1068880  0.5000000    0.00000       Uiso       1.00
       H65          H  0.5659380  0.1845180  0.5000000    0.00000       Uiso       1.00
       C66          C  0.8762520  0.4647390  0.5000000    0.00000       Uiso       1.00
       C67          C  0.8331930  0.4647390  0.5000000    0.00000       Uiso       1.00
       C68          C  0.6993580  0.4805510  0.5000000    0.00000       Uiso       1.00
       C69          C  0.6625940  0.4578600  0.5000000    0.00000       Uiso       1.00
       C70          C  0.6261770  0.4805510  0.5000000    0.00000       Uiso       1.00
       C71          C  0.5855220  0.4690420  0.5000000    0.00000       Uiso       1.00
       O72          O  0.7386850  0.4641370  0.5000000    0.00000       Uiso       1.00
       H73          H  0.3363660  0.4224530  0.5000000    0.00000       Uiso       1.00
       H74          H  0.1068880  0.5664130  0.5000000    0.00000       Uiso       1.00
       H75          H  0.1845180  0.5659380  0.5000000    0.00000       Uiso       1.00
       C76          C  0.1237480  0.5352610  0.5000000    0.00000       Uiso       1.00
       C77          C  0.1668070  0.5352610  0.5000000    0.00000       Uiso       1.00
       C78          C  0.3006420  0.5194490  0.5000000    0.00000       Uiso       1.00
       C79          C  0.3374060  0.5421400  0.5000000    0.00000       Uiso       1.00
       C80          C  0.3738230  0.5194490  0.5000000    0.00000       Uiso       1.00
       C81          C  0.4144780  0.5309580  0.5000000    0.00000       Uiso       1.00
       O82          O  0.2613150  0.5358630  0.5000000    0.00000       Uiso       1.00
       H83          H  0.6636340  0.5775470  0.5000000    0.00000       Uiso       1.00
       H84          H  0.8931120  0.4335870  0.5000000    0.00000       Uiso       1.00
       H85          H  0.8154820  0.4340620  0.5000000    0.00000       Uiso       1.00
       C86          C  0.4647390  0.1237480  0.5000000    0.00000       Uiso       1.00
       C87          C  0.4647390  0.1668070  0.5000000    0.00000       Uiso       1.00
       C88          C  0.4805510  0.3006420  0.5000000    0.00000       Uiso       1.00
       C89          C  0.4578600  0.3374060  0.5000000    0.00000       Uiso       1.00
       C90          C  0.4805510  0.3738230  0.5000000    0.00000       Uiso       1.00
       C91          C  0.4690420  0.4144780  0.5000000    0.00000       Uiso       1.00
       O92          O  0.4641370  0.2613150  0.5000000    0.00000       Uiso       1.00
       H93          H  0.4224530  0.6636340  0.5000000    0.00000       Uiso       1.00
       H94          H  0.5664130  0.8931120  0.5000000    0.00000       Uiso       1.00
       H95          H  0.5659380  0.8154820  0.5000000    0.00000       Uiso       1.00
       C96          C  0.5352610  0.8762520  0.5000000    0.00000       Uiso       1.00
       C97          C  0.5352610  0.8331930  0.5000000    0.00000       Uiso       1.00
       C98          C  0.5194490  0.6993580  0.5000000    0.00000       Uiso       1.00
       C99          C  0.5421400  0.6625940  0.5000000    0.00000       Uiso       1.00
      C100          C  0.5194490  0.6261770  0.5000000    0.00000       Uiso       1.00
      C101          C  0.5309580  0.5855220  0.5000000    0.00000       Uiso       1.00
      O102          O  0.5358630  0.7386850  0.5000000    0.00000       Uiso       1.00
      H103          H  0.5775470  0.3363660  0.5000000    0.00000       Uiso       1.00
      H104          H  0.4335870  0.1068880  0.5000000    0.00000       Uiso       1.00
      H105          H  0.4340620  0.1845180  0.5000000    0.00000       Uiso       1.00
      N106          N  0.4280540  0.4280540  0.5000000    0.00000       Uiso       1.00
      N107          N  0.5719460  0.5719460  0.5000000    0.00000       Uiso       1.00
      N108          N  0.5719460  0.4280540  0.5000000    0.00000       Uiso       1.00
      N109          N  0.4280540  0.5719460  0.5000000    0.00000       Uiso       1.00
