data_ZnPc-NDI
_audit_creation_date              0000-00-00
_audit_creation_method            'LanYouShi'
_symmetry_space_group_name_H-M    'P1'
_cell_length_a                    35.7010002
_cell_length_b                    35.7010002
_cell_length_c                    3.3610001
_cell_angle_alpha                 90.0000000
_cell_angle_beta                  90.0000000
_cell_angle_gamma                 90.0000000
loop_
_atom_site_label
_atom_site_type_symbol
_atom_site_fract_x
_atom_site_fract_y
_atom_site_fract_z
_atom_site_U_iso_or_equiv
_atom_site_adp_type
_atom_site_occupancy
       Zn1         Zn  0.5000000  0.5000000  0.5000000    0.00000       Uiso       1.00
        C2          C  0.0198790  0.5000000  0.5000000    0.00000       Uiso       1.00
        C3          C  0.1408860  0.5000000  0.5000000    0.00000       Uiso       1.00
        C4          C  0.2216620  0.5000000  0.5000000    0.00000       Uiso       1.00
        B5          B  0.2639210  0.5000000  0.5000000    0.00000       Uiso       1.00
        N6          N  0.0992810  0.5000000  0.5000000    0.00000       Uiso       1.00
        N7          N  0.4471620  0.5000000  0.5000000    0.00000       Uiso       1.00
        C8          C  0.9801211  0.5000000  0.5000000    0.00000       Uiso       1.00
        C9          C  0.8591140  0.5000000  0.5000000    0.00000       Uiso       1.00
       C10          C  0.7783380  0.5000000  0.5000000    0.00000       Uiso       1.00
       B11          B  0.7360790  0.5000000  0.5000000    0.00000       Uiso       1.00
       N12          N  0.9007190  0.5000000  0.5000000    0.00000       Uiso       1.00
       N13          N  0.5528380  0.5000000  0.5000000    0.00000       Uiso       1.00
       C14          C  0.5000000  0.0198790  0.5000000    0.00000       Uiso       1.00
       C15          C  0.5000000  0.1408860  0.5000000    0.00000       Uiso       1.00
       C16          C  0.5000000  0.2216620  0.5000000    0.00000       Uiso       1.00
       B17          B  0.5000000  0.2639210  0.5000000    0.00000       Uiso       1.00
       N18          N  0.5000000  0.0992810  0.5000000    0.00000       Uiso       1.00
       N19          N  0.5000000  0.4471620  0.5000000    0.00000       Uiso       1.00
       C20          C  0.5000000  0.9801211  0.5000000    0.00000       Uiso       1.00
       C21          C  0.5000000  0.8591140  0.5000000    0.00000       Uiso       1.00
       C22          C  0.5000000  0.7783380  0.5000000    0.00000       Uiso       1.00
       B23          B  0.5000000  0.7360790  0.5000000    0.00000       Uiso       1.00
       N24          N  0.5000000  0.9007190  0.5000000    0.00000       Uiso       1.00
       N25          N  0.5000000  0.5528380  0.5000000    0.00000       Uiso       1.00
       C26          C  0.0198790  0.4330990  0.5000000    0.00000       Uiso       1.00
       C27          C  0.0396990  0.4665520  0.5000000    0.00000       Uiso       1.00
       C28          C  0.0791870  0.4665520  0.5000000    0.00000       Uiso       1.00
       C29          C  0.1620590  0.4665520  0.5000000    0.00000       Uiso       1.00
       C30          C  0.2013350  0.4665520  0.5000000    0.00000       Uiso       1.00
       C31          C  0.3194190  0.4808600  0.5000000    0.00000       Uiso       1.00
       C32          C  0.3529420  0.4602360  0.5000000    0.00000       Uiso       1.00
       C33          C  0.3863230  0.4809740  0.5000000    0.00000       Uiso       1.00
       C34          C  0.4234940  0.4702640  0.5000000    0.00000       Uiso       1.00
       O35          O  0.0958270  0.4357140  0.5000000    0.00000       Uiso       1.00
       O36          O  0.2852920  0.4675040  0.5000000    0.00000       Uiso       1.00
       H37          H  0.0351030  0.4067310  0.5000000    0.00000       Uiso       1.00
       H38          H  0.1479220  0.4395860  0.5000000    0.00000       Uiso       1.00
       H39          H  0.2165590  0.4401840  0.5000000    0.00000       Uiso       1.00
       H40          H  0.3520920  0.4298010  0.5000000    0.00000       Uiso       1.00
       C41          C  0.9801211  0.5669010  0.5000000    0.00000       Uiso       1.00
       C42          C  0.9603010  0.5334480  0.5000000    0.00000       Uiso       1.00
       C43          C  0.9208131  0.5334480  0.5000000    0.00000       Uiso       1.00
       C44          C  0.8379410  0.5334480  0.5000000    0.00000       Uiso       1.00
       C45          C  0.7986650  0.5334480  0.5000000    0.00000       Uiso       1.00
       C46          C  0.6805810  0.5191400  0.5000000    0.00000       Uiso       1.00
       C47          C  0.6470580  0.5397640  0.5000000    0.00000       Uiso       1.00
       C48          C  0.6136770  0.5190260  0.5000000    0.00000       Uiso       1.00
       C49          C  0.5765060  0.5297360  0.5000000    0.00000       Uiso       1.00
       O50          O  0.9041730  0.5642860  0.5000000    0.00000       Uiso       1.00
       O51          O  0.7147080  0.5324960  0.5000000    0.00000       Uiso       1.00
       H52          H  0.9648970  0.5932690  0.5000000    0.00000       Uiso       1.00
       H53          H  0.8520780  0.5604140  0.5000000    0.00000       Uiso       1.00
       H54          H  0.7834410  0.5598160  0.5000000    0.00000       Uiso       1.00
       H55          H  0.6479090  0.5701990  0.5000000    0.00000       Uiso       1.00
       C56          C  0.5669010  0.0198790  0.5000000    0.00000       Uiso       1.00
       C57          C  0.5334480  0.0396990  0.5000000    0.00000       Uiso       1.00
       C58          C  0.5334480  0.0791870  0.5000000    0.00000       Uiso       1.00
       C59          C  0.5334480  0.1620590  0.5000000    0.00000       Uiso       1.00
       C60          C  0.5334480  0.2013350  0.5000000    0.00000       Uiso       1.00
       C61          C  0.5191400  0.3194190  0.5000000    0.00000       Uiso       1.00
       C62          C  0.5397640  0.3529420  0.5000000    0.00000       Uiso       1.00
       C63          C  0.5190260  0.3863230  0.5000000    0.00000       Uiso       1.00
       C64          C  0.5297360  0.4234940  0.5000000    0.00000       Uiso       1.00
       O65          O  0.5642860  0.0958270  0.5000000    0.00000       Uiso       1.00
       O66          O  0.5324960  0.2852920  0.5000000    0.00000       Uiso       1.00
       H67          H  0.5932690  0.0351030  0.5000000    0.00000       Uiso       1.00
       H68          H  0.5604140  0.1479220  0.5000000    0.00000       Uiso       1.00
       H69          H  0.5598160  0.2165590  0.5000000    0.00000       Uiso       1.00
       H70          H  0.5701990  0.3520920  0.5000000    0.00000       Uiso       1.00
       C71          C  0.4330990  0.9801211  0.5000000    0.00000       Uiso       1.00
       C72          C  0.4665520  0.9603010  0.5000000    0.00000       Uiso       1.00
       C73          C  0.4665520  0.9208131  0.5000000    0.00000       Uiso       1.00
       C74          C  0.4665520  0.8379410  0.5000000    0.00000       Uiso       1.00
       C75          C  0.4665520  0.7986650  0.5000000    0.00000       Uiso       1.00
       C76          C  0.4808600  0.6805810  0.5000000    0.00000       Uiso       1.00
       C77          C  0.4602360  0.6470580  0.5000000    0.00000       Uiso       1.00
       C78          C  0.4809740  0.6136770  0.5000000    0.00000       Uiso       1.00
       C79          C  0.4702640  0.5765060  0.5000000    0.00000       Uiso       1.00
       O80          O  0.4357140  0.9041730  0.5000000    0.00000       Uiso       1.00
       O81          O  0.4675040  0.7147080  0.5000000    0.00000       Uiso       1.00
       H82          H  0.4067310  0.9648970  0.5000000    0.00000       Uiso       1.00
       H83          H  0.4395860  0.8520780  0.5000000    0.00000       Uiso       1.00
       H84          H  0.4401840  0.7834410  0.5000000    0.00000       Uiso       1.00
       H85          H  0.4298010  0.6479090  0.5000000    0.00000       Uiso       1.00
       C86          C  0.9801211  0.4330990  0.5000000    0.00000       Uiso       1.00
       C87          C  0.9603010  0.4665520  0.5000000    0.00000       Uiso       1.00
       C88          C  0.9208131  0.4665520  0.5000000    0.00000       Uiso       1.00
       C89          C  0.8379410  0.4665520  0.5000000    0.00000       Uiso       1.00
       C90          C  0.7986650  0.4665520  0.5000000    0.00000       Uiso       1.00
       C91          C  0.6805810  0.4808600  0.5000000    0.00000       Uiso       1.00
       C92          C  0.6470580  0.4602360  0.5000000    0.00000       Uiso       1.00
       C93          C  0.6136770  0.4809740  0.5000000    0.00000       Uiso       1.00
       C94          C  0.5765060  0.4702640  0.5000000    0.00000       Uiso       1.00
       O95          O  0.9041730  0.4357140  0.5000000    0.00000       Uiso       1.00
       O96          O  0.7147080  0.4675040  0.5000000    0.00000       Uiso       1.00
       H97          H  0.9648970  0.4067310  0.5000000    0.00000       Uiso       1.00
       H98          H  0.8520780  0.4395860  0.5000000    0.00000       Uiso       1.00
       H99          H  0.7834410  0.4401840  0.5000000    0.00000       Uiso       1.00
      H100          H  0.6479090  0.4298010  0.5000000    0.00000       Uiso       1.00
      C101          C  0.0198790  0.5669010  0.5000000    0.00000       Uiso       1.00
      C102          C  0.0396990  0.5334480  0.5000000    0.00000       Uiso       1.00
      C103          C  0.0791870  0.5334480  0.5000000    0.00000       Uiso       1.00
      C104          C  0.1620590  0.5334480  0.5000000    0.00000       Uiso       1.00
      C105          C  0.2013350  0.5334480  0.5000000    0.00000       Uiso       1.00
      C106          C  0.3194190  0.5191400  0.5000000    0.00000       Uiso       1.00
      C107          C  0.3529420  0.5397640  0.5000000    0.00000       Uiso       1.00
      C108          C  0.3863230  0.5190260  0.5000000    0.00000       Uiso       1.00
      C109          C  0.4234940  0.5297360  0.5000000    0.00000       Uiso       1.00
      O110          O  0.0958270  0.5642860  0.5000000    0.00000       Uiso       1.00
      O111          O  0.2852920  0.5324960  0.5000000    0.00000       Uiso       1.00
      H112          H  0.0351030  0.5932690  0.5000000    0.00000       Uiso       1.00
      H113          H  0.1479220  0.5604140  0.5000000    0.00000       Uiso       1.00
      H114          H  0.2165590  0.5598160  0.5000000    0.00000       Uiso       1.00
      H115          H  0.3520920  0.5701990  0.5000000    0.00000       Uiso       1.00
      C116          C  0.4330990  0.0198790  0.5000000    0.00000       Uiso       1.00
      C117          C  0.4665520  0.0396990  0.5000000    0.00000       Uiso       1.00
      C118          C  0.4665520  0.0791870  0.5000000    0.00000       Uiso       1.00
      C119          C  0.4665520  0.1620590  0.5000000    0.00000       Uiso       1.00
      C120          C  0.4665520  0.2013350  0.5000000    0.00000       Uiso       1.00
      C121          C  0.4808600  0.3194190  0.5000000    0.00000       Uiso       1.00
      C122          C  0.4602360  0.3529420  0.5000000    0.00000       Uiso       1.00
      C123          C  0.4809740  0.3863230  0.5000000    0.00000       Uiso       1.00
      C124          C  0.4702640  0.4234940  0.5000000    0.00000       Uiso       1.00
      O125          O  0.4357140  0.0958270  0.5000000    0.00000       Uiso       1.00
      O126          O  0.4675040  0.2852920  0.5000000    0.00000       Uiso       1.00
      H127          H  0.4067310  0.0351030  0.5000000    0.00000       Uiso       1.00
      H128          H  0.4395860  0.1479220  0.5000000    0.00000       Uiso       1.00
      H129          H  0.4401840  0.2165590  0.5000000    0.00000       Uiso       1.00
      H130          H  0.4298010  0.3520920  0.5000000    0.00000       Uiso       1.00
      C131          C  0.5669010  0.9801211  0.5000000    0.00000       Uiso       1.00
      C132          C  0.5334480  0.9603010  0.5000000    0.00000       Uiso       1.00
      C133          C  0.5334480  0.9208131  0.5000000    0.00000       Uiso       1.00
      C134          C  0.5334480  0.8379410  0.5000000    0.00000       Uiso       1.00
      C135          C  0.5334480  0.7986650  0.5000000    0.00000       Uiso       1.00
      C136          C  0.5191400  0.6805810  0.5000000    0.00000       Uiso       1.00
      C137          C  0.5397640  0.6470580  0.5000000    0.00000       Uiso       1.00
      C138          C  0.5190260  0.6136770  0.5000000    0.00000       Uiso       1.00
      C139          C  0.5297360  0.5765060  0.5000000    0.00000       Uiso       1.00
      O140          O  0.5642860  0.9041730  0.5000000    0.00000       Uiso       1.00
      O141          O  0.5324960  0.7147080  0.5000000    0.00000       Uiso       1.00
      H142          H  0.5932690  0.9648970  0.5000000    0.00000       Uiso       1.00
      H143          H  0.5604140  0.8520780  0.5000000    0.00000       Uiso       1.00
      H144          H  0.5598160  0.7834410  0.5000000    0.00000       Uiso       1.00
      H145          H  0.5701990  0.6479090  0.5000000    0.00000       Uiso       1.00
      N146          N  0.4345200  0.4345200  0.5000000    0.00000       Uiso       1.00
      N147          N  0.5654800  0.5654800  0.5000000    0.00000       Uiso       1.00
      N148          N  0.5654800  0.4345200  0.5000000    0.00000       Uiso       1.00
      N149          N  0.4345200  0.5654800  0.5000000    0.00000       Uiso       1.00
