data_ZnP-COF
_audit_creation_date              0000-00-00
_audit_creation_method            'LanYouShi'
_symmetry_space_group_name_H-M    'P1'
_cell_length_a                    35.3513985
_cell_length_b                    35.4280014
_cell_length_c                    6.7872000
_cell_angle_alpha                 90.0000000
_cell_angle_beta                  90.0000000
_cell_angle_gamma                 90.0000000
loop_
_atom_site_label
_atom_site_type_symbol
_atom_site_fract_x
_atom_site_fract_y
_atom_site_fract_z
_atom_site_U_iso_or_equiv
_atom_site_adp_type
_atom_site_occupancy
        C1          C  0.7120200  0.7400970  0.5000010    0.00000       Uiso       1.00
        C2          C  0.2120190  0.2400970  0.5000010    0.00000       Uiso       1.00
        C3          C  0.2879810  0.2599020  0.5000010    0.00000       Uiso       1.00
        C4          C  0.7879810  0.7599020  0.5000010    0.00000       Uiso       1.00
        C5          C  0.2879810  0.7400970  0.5000010    0.00000       Uiso       1.00
        C6          C  0.7879810  0.2400970  0.5000010    0.00000       Uiso       1.00
        C7          C  0.7120200  0.2599020  0.5000010    0.00000       Uiso       1.00
        C8          C  0.2120190  0.7599020  0.5000010    0.00000       Uiso       1.00
        O9          O  0.6772950  0.7244770  0.5000010    0.00000       Uiso       1.00
       O10          O  0.1772950  0.2244770  0.5000010    0.00000       Uiso       1.00
       O11          O  0.3227050  0.2755230  0.5000010    0.00000       Uiso       1.00
       O12          O  0.8227060  0.7755220  0.5000010    0.00000       Uiso       1.00
       O13          O  0.3227050  0.7244770  0.5000010    0.00000       Uiso       1.00
       O14          O  0.8227060  0.2244770  0.5000010    0.00000       Uiso       1.00
       O15          O  0.6772950  0.2755230  0.5000010    0.00000       Uiso       1.00
       O16          O  0.1772950  0.7755220  0.5000010    0.00000       Uiso       1.00
       C17          C  0.7211920  0.7786710  0.5000010    0.00000       Uiso       1.00
       C18          C  0.2211910  0.2786710  0.5000010    0.00000       Uiso       1.00
       C19          C  0.2788090  0.2213290  0.5000010    0.00000       Uiso       1.00
       C20          C  0.7788100  0.7213280  0.5000010    0.00000       Uiso       1.00
       C21          C  0.2788090  0.7786710  0.5000010    0.00000       Uiso       1.00
       C22          C  0.7788100  0.2786710  0.5000010    0.00000       Uiso       1.00
       C23          C  0.7211920  0.2213290  0.5000010    0.00000       Uiso       1.00
       C24          C  0.2211910  0.7213280  0.5000010    0.00000       Uiso       1.00
       C25          C  0.7598240  0.7879240  0.5000010    0.00000       Uiso       1.00
       C26          C  0.2598240  0.2879240  0.5000010    0.00000       Uiso       1.00
       C27          C  0.2401760  0.2120750  0.5000010    0.00000       Uiso       1.00
       C28          C  0.7401770  0.7120750  0.5000010    0.00000       Uiso       1.00
       C29          C  0.2401760  0.7879240  0.5000010    0.00000       Uiso       1.00
       C30          C  0.7401770  0.2879240  0.5000010    0.00000       Uiso       1.00
       C31          C  0.7598240  0.2120750  0.5000010    0.00000       Uiso       1.00
       C32          C  0.2598240  0.7120750  0.5000010    0.00000       Uiso       1.00
       H33          H  0.7007970  0.7989670  0.5000010    0.00000       Uiso       1.00
       H34          H  0.2007970  0.2989670  0.5000010    0.00000       Uiso       1.00
       H35          H  0.2992030  0.2010320  0.5000010    0.00000       Uiso       1.00
       H36          H  0.7992040  0.7010320  0.5000010    0.00000       Uiso       1.00
       H37          H  0.2992030  0.7989670  0.5000010    0.00000       Uiso       1.00
       H38          H  0.7992040  0.2989670  0.5000010    0.00000       Uiso       1.00
       H39          H  0.7007970  0.2010320  0.5000010    0.00000       Uiso       1.00
       H40          H  0.2007970  0.7010320  0.5000010    0.00000       Uiso       1.00
       C41          C  0.5817940  0.4683490  0.5000010    0.00000       Uiso       1.00
       C42          C  0.0817930  0.9683481  0.5000010    0.00000       Uiso       1.00
       C43          C  0.4182070  0.5316510  0.5000010    0.00000       Uiso       1.00
       C44          C  0.9182069  0.0316510  0.5000010    0.00000       Uiso       1.00
       C45          C  0.4182070  0.4683490  0.5000010    0.00000       Uiso       1.00
       C46          C  0.9182069  0.9683481  0.5000010    0.00000       Uiso       1.00
       C47          C  0.5817940  0.5316510  0.5000010    0.00000       Uiso       1.00
       C48          C  0.0817930  0.0316510  0.5000010    0.00000       Uiso       1.00
       C49          C  0.6193340  0.4805490  0.5000010    0.00000       Uiso       1.00
       C50          C  0.1193340  0.9805480  0.5000010    0.00000       Uiso       1.00
       C51          C  0.3806660  0.5194510  0.5000010    0.00000       Uiso       1.00
       C52          C  0.8806670  0.0194510  0.5000010    0.00000       Uiso       1.00
       C53          C  0.3806660  0.4805490  0.5000010    0.00000       Uiso       1.00
       C54          C  0.8806670  0.9805480  0.5000010    0.00000       Uiso       1.00
       C55          C  0.6193340  0.5194510  0.5000010    0.00000       Uiso       1.00
       C56          C  0.1193340  0.0194510  0.5000010    0.00000       Uiso       1.00
       H57          H  0.6430140  0.4640010  0.5000010    0.00000       Uiso       1.00
       H58          H  0.1430130  0.9640011  0.5000010    0.00000       Uiso       1.00
       H59          H  0.3569870  0.5359980  0.5000010    0.00000       Uiso       1.00
       H60          H  0.8569880  0.0359980  0.5000010    0.00000       Uiso       1.00
       H61          H  0.3569870  0.4640010  0.5000010    0.00000       Uiso       1.00
       H62          H  0.8569880  0.9640011  0.5000010    0.00000       Uiso       1.00
       H63          H  0.6430140  0.5359980  0.5000010    0.00000       Uiso       1.00
       H64          H  0.1430130  0.0359980  0.5000010    0.00000       Uiso       1.00
       N65          N  0.0000000  0.9405941  0.5000010    0.00000       Uiso       1.00
       N66          N  0.5000000  0.4405940  0.5000010    0.00000       Uiso       1.00
       N67          N  0.0000000  0.0594060  0.5000010    0.00000       Uiso       1.00
       N68          N  0.5000000  0.5594050  0.5000010    0.00000       Uiso       1.00
       C69          C  0.0315140  0.9187521  0.5000010    0.00000       Uiso       1.00
       C70          C  0.5315140  0.4187520  0.5000010    0.00000       Uiso       1.00
       C71          C  0.9684870  0.0812480  0.5000010    0.00000       Uiso       1.00
       C72          C  0.4684870  0.5812470  0.5000010    0.00000       Uiso       1.00
       C73          C  0.9684870  0.9187521  0.5000010    0.00000       Uiso       1.00
       C74          C  0.4684870  0.4187520  0.5000010    0.00000       Uiso       1.00
       C75          C  0.0315140  0.0812480  0.5000010    0.00000       Uiso       1.00
       C76          C  0.5315140  0.5812470  0.5000010    0.00000       Uiso       1.00
       C77          C  0.0194480  0.8812400  0.5000010    0.00000       Uiso       1.00
       C78          C  0.5194480  0.3812400  0.5000010    0.00000       Uiso       1.00
       C79          C  0.9805529  0.1187590  0.5000010    0.00000       Uiso       1.00
       C80          C  0.4805520  0.6187590  0.5000010    0.00000       Uiso       1.00
       C81          C  0.9805529  0.8812400  0.5000010    0.00000       Uiso       1.00
       C82          C  0.4805520  0.3812400  0.5000010    0.00000       Uiso       1.00
       C83          C  0.0194480  0.1187590  0.5000010    0.00000       Uiso       1.00
       C84          C  0.5194480  0.6187590  0.5000010    0.00000       Uiso       1.00
       H85          H  0.0360570  0.8576160  0.5000010    0.00000       Uiso       1.00
       H86          H  0.5360580  0.3576170  0.5000010    0.00000       Uiso       1.00
       H87          H  0.9639441  0.1423830  0.5000010    0.00000       Uiso       1.00
       H88          H  0.4639430  0.6423830  0.5000010    0.00000       Uiso       1.00
       H89          H  0.9639441  0.8576160  0.5000010    0.00000       Uiso       1.00
       H90          H  0.4639430  0.3576170  0.5000010    0.00000       Uiso       1.00
       H91          H  0.0360570  0.1423830  0.5000010    0.00000       Uiso       1.00
       H92          H  0.5360580  0.6423830  0.5000010    0.00000       Uiso       1.00
       C93          C  0.5698470  0.4302650  0.5000010    0.00000       Uiso       1.00
       C94          C  0.0698470  0.9302640  0.5000010    0.00000       Uiso       1.00
       C95          C  0.4301540  0.5697350  0.5000010    0.00000       Uiso       1.00
       C96          C  0.9301540  0.0697350  0.5000010    0.00000       Uiso       1.00
       C97          C  0.4301540  0.4302650  0.5000010    0.00000       Uiso       1.00
       C98          C  0.9301540  0.9302640  0.5000010    0.00000       Uiso       1.00
       C99          C  0.5698470  0.5697350  0.5000010    0.00000       Uiso       1.00
      C100          C  0.0698470  0.0697350  0.5000010    0.00000       Uiso       1.00
      C101          C  0.5980740  0.4020150  0.5000010    0.00000       Uiso       1.00
      C102          C  0.0980740  0.9020150  0.5000010    0.00000       Uiso       1.00
      C103          C  0.4019260  0.5979840  0.5000010    0.00000       Uiso       1.00
      C104          C  0.9019270  0.0979850  0.5000010    0.00000       Uiso       1.00
      C105          C  0.4019260  0.4020150  0.5000010    0.00000       Uiso       1.00
      C106          C  0.9019270  0.9020150  0.5000010    0.00000       Uiso       1.00
      C107          C  0.5980740  0.5979840  0.5000010    0.00000       Uiso       1.00
      C108          C  0.0980740  0.0979850  0.5000010    0.00000       Uiso       1.00
      C109          C  0.6123330  0.3877460  0.6795500    0.00000       Uiso       1.00
      C110          C  0.1123320  0.8877460  0.6795500    0.00000       Uiso       1.00
      C111          C  0.3876680  0.6122530  0.6795500    0.00000       Uiso       1.00
      C112          C  0.8876690  0.1122530  0.6795500    0.00000       Uiso       1.00
      C113          C  0.3876680  0.3877460  0.3204520    0.00000       Uiso       1.00
      C114          C  0.8876690  0.8877460  0.3204520    0.00000       Uiso       1.00
      C115          C  0.6123330  0.6122530  0.3204520    0.00000       Uiso       1.00
      C116          C  0.1123320  0.1122530  0.3204520    0.00000       Uiso       1.00
      C117          C  0.3876680  0.6122530  0.3204520    0.00000       Uiso       1.00
      C118          C  0.8876690  0.1122530  0.3204520    0.00000       Uiso       1.00
      C119          C  0.6123330  0.3877460  0.3204520    0.00000       Uiso       1.00
      C120          C  0.1123320  0.8877460  0.3204520    0.00000       Uiso       1.00
      C121          C  0.6123330  0.6122530  0.6795500    0.00000       Uiso       1.00
      C122          C  0.1123320  0.1122530  0.6795500    0.00000       Uiso       1.00
      C123          C  0.3876680  0.3877460  0.6795500    0.00000       Uiso       1.00
      C124          C  0.8876690  0.8877460  0.6795500    0.00000       Uiso       1.00
      H125          H  0.6022990  0.3977920  0.8109410    0.00000       Uiso       1.00
      H126          H  0.1022990  0.8977910  0.8109410    0.00000       Uiso       1.00
      H127          H  0.3977010  0.6022080  0.8109410    0.00000       Uiso       1.00
      H128          H  0.8977020  0.1022080  0.8109410    0.00000       Uiso       1.00
      H129          H  0.3977010  0.3977920  0.1890610    0.00000       Uiso       1.00
      H130          H  0.8977020  0.8977910  0.1890610    0.00000       Uiso       1.00
      H131          H  0.6022990  0.6022080  0.1890610    0.00000       Uiso       1.00
      H132          H  0.1022990  0.1022080  0.1890610    0.00000       Uiso       1.00
      H133          H  0.3977010  0.6022080  0.1890610    0.00000       Uiso       1.00
      H134          H  0.8977020  0.1022080  0.1890610    0.00000       Uiso       1.00
      H135          H  0.6022990  0.3977920  0.1890610    0.00000       Uiso       1.00
      H136          H  0.1022990  0.8977910  0.1890610    0.00000       Uiso       1.00
      H137          H  0.6022990  0.6022080  0.8109410    0.00000       Uiso       1.00
      H138          H  0.1022990  0.1022080  0.8109410    0.00000       Uiso       1.00
      H139          H  0.3977010  0.3977920  0.8109410    0.00000       Uiso       1.00
      H140          H  0.8977020  0.8977910  0.8109410    0.00000       Uiso       1.00
      C141          C  0.6404460  0.3596110  0.6795250    0.00000       Uiso       1.00
      C142          C  0.1404460  0.8596110  0.6795250    0.00000       Uiso       1.00
      C143          C  0.3595550  0.6403880  0.6795250    0.00000       Uiso       1.00
      C144          C  0.8595550  0.1403890  0.6795250    0.00000       Uiso       1.00
      C145          C  0.3595550  0.3596110  0.3204770    0.00000       Uiso       1.00
      C146          C  0.8595550  0.8596110  0.3204770    0.00000       Uiso       1.00
      C147          C  0.6404460  0.6403880  0.3204770    0.00000       Uiso       1.00
      C148          C  0.1404460  0.1403890  0.3204770    0.00000       Uiso       1.00
      C149          C  0.3595550  0.6403880  0.3204770    0.00000       Uiso       1.00
      C150          C  0.8595550  0.1403890  0.3204770    0.00000       Uiso       1.00
      C151          C  0.6404460  0.3596110  0.3204770    0.00000       Uiso       1.00
      C152          C  0.1404460  0.8596110  0.3204770    0.00000       Uiso       1.00
      C153          C  0.6404460  0.6403880  0.6795250    0.00000       Uiso       1.00
      C154          C  0.1404460  0.1403890  0.6795250    0.00000       Uiso       1.00
      C155          C  0.3595550  0.3596110  0.6795250    0.00000       Uiso       1.00
      C156          C  0.8595550  0.8596110  0.6795250    0.00000       Uiso       1.00
      H157          H  0.6504800  0.3495700  0.8109130    0.00000       Uiso       1.00
      H158          H  0.1504800  0.8495700  0.8109130    0.00000       Uiso       1.00
      H159          H  0.3495210  0.6504290  0.8109130    0.00000       Uiso       1.00
      H160          H  0.8495210  0.1504300  0.8109130    0.00000       Uiso       1.00
      H161          H  0.3495210  0.3495700  0.1890900    0.00000       Uiso       1.00
      H162          H  0.8495210  0.8495700  0.1890900    0.00000       Uiso       1.00
      H163          H  0.6504800  0.6504290  0.1890900    0.00000       Uiso       1.00
      H164          H  0.1504800  0.1504300  0.1890900    0.00000       Uiso       1.00
      H165          H  0.3495210  0.6504290  0.1890900    0.00000       Uiso       1.00
      H166          H  0.8495210  0.1504300  0.1890900    0.00000       Uiso       1.00
      H167          H  0.6504800  0.3495700  0.1890900    0.00000       Uiso       1.00
      H168          H  0.1504800  0.8495700  0.1890900    0.00000       Uiso       1.00
      H169          H  0.6504800  0.6504290  0.8109130    0.00000       Uiso       1.00
      H170          H  0.1504800  0.1504300  0.8109130    0.00000       Uiso       1.00
      H171          H  0.3495210  0.3495700  0.8109130    0.00000       Uiso       1.00
      H172          H  0.8495210  0.8495700  0.8109130    0.00000       Uiso       1.00
      C173          C  0.6546960  0.3453510  0.5000010    0.00000       Uiso       1.00
      C174          C  0.1546960  0.8453510  0.5000010    0.00000       Uiso       1.00
      C175          C  0.3453050  0.6546480  0.5000010    0.00000       Uiso       1.00
      C176          C  0.8453050  0.1546490  0.5000010    0.00000       Uiso       1.00
      C177          C  0.3453050  0.3453510  0.5000010    0.00000       Uiso       1.00
      C178          C  0.8453050  0.8453510  0.5000010    0.00000       Uiso       1.00
      C179          C  0.6546960  0.6546480  0.5000010    0.00000       Uiso       1.00
      C180          C  0.1546960  0.1546490  0.5000010    0.00000       Uiso       1.00
      O181          O  0.7753870  0.8226150  0.5000010    0.00000       Uiso       1.00
      O182          O  0.2753860  0.3226150  0.5000010    0.00000       Uiso       1.00
      O183          O  0.2246140  0.1773850  0.5000010    0.00000       Uiso       1.00
      O184          O  0.7246140  0.6773840  0.5000010    0.00000       Uiso       1.00
      O185          O  0.2246140  0.8226150  0.5000010    0.00000       Uiso       1.00
      O186          O  0.7246140  0.3226150  0.5000010    0.00000       Uiso       1.00
      O187          O  0.7753870  0.1773850  0.5000010    0.00000       Uiso       1.00
      O188          O  0.2753860  0.6773840  0.5000010    0.00000       Uiso       1.00
      B189          B  0.8155870  0.8156160  0.5000010    0.00000       Uiso       1.00
      B190          B  0.3155860  0.3156170  0.5000010    0.00000       Uiso       1.00
      B191          B  0.1844140  0.1843830  0.5000010    0.00000       Uiso       1.00
      B192          B  0.6844150  0.6843830  0.5000010    0.00000       Uiso       1.00
      B193          B  0.1844140  0.8156160  0.5000010    0.00000       Uiso       1.00
      B194          B  0.6844150  0.3156170  0.5000010    0.00000       Uiso       1.00
      B195          B  0.8155870  0.1843830  0.5000010    0.00000       Uiso       1.00
      B196          B  0.3155860  0.6843830  0.5000010    0.00000       Uiso       1.00
      N197          N  0.5604990  0.5000000  0.5000010    0.00000       Uiso       1.00
      N198          N  0.0604990  0.0000000  0.5000010    0.00000       Uiso       1.00
      N199          N  0.4395020  0.5000000  0.5000010    0.00000       Uiso       1.00
      N200          N  0.9395021  0.0000000  0.5000010    0.00000       Uiso       1.00
      H201          H  0.5330560  0.5000000  0.5000010    0.00000       Uiso       1.00
      H202          H  0.0330560  0.0000000  0.5000010    0.00000       Uiso       1.00
      H203          H  0.4669450  0.5000000  0.5000010    0.00000       Uiso       1.00
      H204          H  0.9669450  0.0000000  0.5000010    0.00000       Uiso       1.00
