data_ZnPc-Py
_audit_creation_date              0000-00-00
_audit_creation_method            'LanYouShi'
_symmetry_space_group_name_H-M    'P1'
_cell_length_a                    26.9799995
_cell_length_b                    26.9799995
_cell_length_c                    3.3380001
_cell_angle_alpha                 90.0000000
_cell_angle_beta                  90.0000000
_cell_angle_gamma                 90.0000000
loop_
_atom_site_label
_atom_site_type_symbol
_atom_site_fract_x
_atom_site_fract_y
_atom_site_fract_z
_atom_site_U_iso_or_equiv
_atom_site_adp_type
_atom_site_occupancy
        C1          C  0.0274620  0.4108600  0.5000000    0.00000       Uiso       1.00
        C2          C  0.0537060  0.4554300  0.5000000    0.00000       Uiso       1.00
        C3          C  0.1056740  0.4554300  0.5000000    0.00000       Uiso       1.00
        C4          C  0.2650000  0.4750000  0.5000000    0.00000       Uiso       1.00
        C5          C  0.3090000  0.4500000  0.5000000    0.00000       Uiso       1.00
        C6          C  0.3550000  0.4750000  0.5000000    0.00000       Uiso       1.00
        C7          C  0.4010000  0.4620000  0.5000000    0.00000       Uiso       1.00
        O8          O  0.2120250  0.5465910  0.5000000    0.00000       Uiso       1.00
        H9          H  0.0473070  0.3757970  0.5000000    0.00000       Uiso       1.00
       H10          H  0.1258190  0.4205390  0.5000000    0.00000       Uiso       1.00
       H11          H  0.3092780  0.4097120  0.5000000    0.00000       Uiso       1.00
       C12          C  0.9725380  0.5891400  0.5000000    0.00000       Uiso       1.00
       C13          C  0.9462940  0.5445700  0.5000000    0.00000       Uiso       1.00
       C14          C  0.8943260  0.5445700  0.5000000    0.00000       Uiso       1.00
       C15          C  0.7350000  0.5250000  0.5000000    0.00000       Uiso       1.00
       C16          C  0.6910000  0.5500000  0.5000000    0.00000       Uiso       1.00
       C17          C  0.6450000  0.5250000  0.5000000    0.00000       Uiso       1.00
       C18          C  0.5990000  0.5380000  0.5000000    0.00000       Uiso       1.00
       O19          O  0.7879750  0.4534090  0.5000000    0.00000       Uiso       1.00
       H20          H  0.9526930  0.6242030  0.5000000    0.00000       Uiso       1.00
       H21          H  0.8741810  0.5794610  0.5000000    0.00000       Uiso       1.00
       H22          H  0.6907220  0.5902880  0.5000000    0.00000       Uiso       1.00
       C23          C  0.5891400  0.0274620  0.5000000    0.00000       Uiso       1.00
       C24          C  0.5445700  0.0537060  0.5000000    0.00000       Uiso       1.00
       C25          C  0.5445700  0.1056740  0.5000000    0.00000       Uiso       1.00
       C26          C  0.5250000  0.2650000  0.5000000    0.00000       Uiso       1.00
       C27          C  0.5500000  0.3090000  0.5000000    0.00000       Uiso       1.00
       C28          C  0.5250000  0.3550000  0.5000000    0.00000       Uiso       1.00
       C29          C  0.5380000  0.4010000  0.5000000    0.00000       Uiso       1.00
       O30          O  0.4534090  0.2120250  0.5000000    0.00000       Uiso       1.00
       H31          H  0.6242030  0.0473070  0.5000000    0.00000       Uiso       1.00
       H32          H  0.5794610  0.1258190  0.5000000    0.00000       Uiso       1.00
       H33          H  0.5902880  0.3092780  0.5000000    0.00000       Uiso       1.00
       C34          C  0.4108600  0.9725380  0.5000000    0.00000       Uiso       1.00
       C35          C  0.4554300  0.9462940  0.5000000    0.00000       Uiso       1.00
       C36          C  0.4554300  0.8943260  0.5000000    0.00000       Uiso       1.00
       C37          C  0.4750000  0.7350000  0.5000000    0.00000       Uiso       1.00
       C38          C  0.4500000  0.6910000  0.5000000    0.00000       Uiso       1.00
       C39          C  0.4750000  0.6450000  0.5000000    0.00000       Uiso       1.00
       C40          C  0.4620000  0.5990000  0.5000000    0.00000       Uiso       1.00
       O41          O  0.5465910  0.7879750  0.5000000    0.00000       Uiso       1.00
       H42          H  0.3757970  0.9526930  0.5000000    0.00000       Uiso       1.00
       H43          H  0.4205390  0.8741810  0.5000000    0.00000       Uiso       1.00
       H44          H  0.4097120  0.6907220  0.5000000    0.00000       Uiso       1.00
       C45          C  0.9725380  0.4108600  0.5000000    0.00000       Uiso       1.00
       C46          C  0.9462940  0.4554300  0.5000000    0.00000       Uiso       1.00
       C47          C  0.8943260  0.4554300  0.5000000    0.00000       Uiso       1.00
       C48          C  0.7350000  0.4750000  0.5000000    0.00000       Uiso       1.00
       C49          C  0.6910000  0.4500000  0.5000000    0.00000       Uiso       1.00
       C50          C  0.6450000  0.4750000  0.5000000    0.00000       Uiso       1.00
       C51          C  0.5990000  0.4620000  0.5000000    0.00000       Uiso       1.00
       O52          O  0.7879750  0.5465910  0.5000000    0.00000       Uiso       1.00
       H53          H  0.9526930  0.3757970  0.5000000    0.00000       Uiso       1.00
       H54          H  0.8741810  0.4205390  0.5000000    0.00000       Uiso       1.00
       H55          H  0.6907220  0.4097120  0.5000000    0.00000       Uiso       1.00
       C56          C  0.0274620  0.5891400  0.5000000    0.00000       Uiso       1.00
       C57          C  0.0537060  0.5445700  0.5000000    0.00000       Uiso       1.00
       C58          C  0.1056740  0.5445700  0.5000000    0.00000       Uiso       1.00
       C59          C  0.2650000  0.5250000  0.5000000    0.00000       Uiso       1.00
       C60          C  0.3090000  0.5500000  0.5000000    0.00000       Uiso       1.00
       C61          C  0.3550000  0.5250000  0.5000000    0.00000       Uiso       1.00
       C62          C  0.4010000  0.5380000  0.5000000    0.00000       Uiso       1.00
       O63          O  0.2120250  0.4534090  0.5000000    0.00000       Uiso       1.00
       H64          H  0.0473070  0.6242030  0.5000000    0.00000       Uiso       1.00
       H65          H  0.1258190  0.5794610  0.5000000    0.00000       Uiso       1.00
       H66          H  0.3092780  0.5902880  0.5000000    0.00000       Uiso       1.00
       C67          C  0.4108600  0.0274620  0.5000000    0.00000       Uiso       1.00
       C68          C  0.4554300  0.0537060  0.5000000    0.00000       Uiso       1.00
       C69          C  0.4554300  0.1056740  0.5000000    0.00000       Uiso       1.00
       C70          C  0.4750000  0.2650000  0.5000000    0.00000       Uiso       1.00
       C71          C  0.4500000  0.3090000  0.5000000    0.00000       Uiso       1.00
       C72          C  0.4750000  0.3550000  0.5000000    0.00000       Uiso       1.00
       C73          C  0.4620000  0.4010000  0.5000000    0.00000       Uiso       1.00
       O74          O  0.5465910  0.2120250  0.5000000    0.00000       Uiso       1.00
       H75          H  0.3757970  0.0473070  0.5000000    0.00000       Uiso       1.00
       H76          H  0.4205390  0.1258190  0.5000000    0.00000       Uiso       1.00
       H77          H  0.4097120  0.3092780  0.5000000    0.00000       Uiso       1.00
       C78          C  0.5891400  0.9725380  0.5000000    0.00000       Uiso       1.00
       C79          C  0.5445700  0.9462940  0.5000000    0.00000       Uiso       1.00
       C80          C  0.5445700  0.8943260  0.5000000    0.00000       Uiso       1.00
       C81          C  0.5250000  0.7350000  0.5000000    0.00000       Uiso       1.00
       C82          C  0.5500000  0.6910000  0.5000000    0.00000       Uiso       1.00
       C83          C  0.5250000  0.6450000  0.5000000    0.00000       Uiso       1.00
       C84          C  0.5380000  0.5990000  0.5000000    0.00000       Uiso       1.00
       O85          O  0.4534090  0.7879750  0.5000000    0.00000       Uiso       1.00
       H86          H  0.6242030  0.9526930  0.5000000    0.00000       Uiso       1.00
       H87          H  0.5794610  0.8741810  0.5000000    0.00000       Uiso       1.00
       H88          H  0.5902880  0.6907220  0.5000000    0.00000       Uiso       1.00
       C89          C  0.0274620  0.5000000  0.5000000    0.00000       Uiso       1.00
       C90          C  0.1312880  0.5000000  0.5000000    0.00000       Uiso       1.00
       B91          B  0.1828230  0.5000000  0.5000000    0.00000       Uiso       1.00
       N92          N  0.4300000  0.5000000  0.5000000    0.00000       Uiso       1.00
       C93          C  0.9725380  0.5000000  0.5000000    0.00000       Uiso       1.00
       C94          C  0.8687120  0.5000000  0.5000000    0.00000       Uiso       1.00
       B95          B  0.8171770  0.5000000  0.5000000    0.00000       Uiso       1.00
       N96          N  0.5700000  0.5000000  0.5000000    0.00000       Uiso       1.00
       C97          C  0.5000000  0.0274620  0.5000000    0.00000       Uiso       1.00
       C98          C  0.5000000  0.1312880  0.5000000    0.00000       Uiso       1.00
       B99          B  0.5000000  0.1828230  0.5000000    0.00000       Uiso       1.00
      N100          N  0.5000000  0.4300000  0.5000000    0.00000       Uiso       1.00
      C101          C  0.5000000  0.9725380  0.5000000    0.00000       Uiso       1.00
      C102          C  0.5000000  0.8687120  0.5000000    0.00000       Uiso       1.00
      B103          B  0.5000000  0.8171770  0.5000000    0.00000       Uiso       1.00
      N104          N  0.5000000  0.5700000  0.5000000    0.00000       Uiso       1.00
      N105          N  0.4160000  0.5840000  0.5000000    0.00000       Uiso       1.00
      N106          N  0.5840000  0.4160000  0.5000000    0.00000       Uiso       1.00
      N107          N  0.4160000  0.4160000  0.5000000    0.00000       Uiso       1.00
      N108          N  0.5840000  0.5840000  0.5000000    0.00000       Uiso       1.00
     Zn109         Zn  0.5000000  0.5000000  0.5000000    0.00000       Uiso       1.00
