data_CCOF-1
_audit_creation_date              0000-00-00
_audit_creation_method            'LanYouShi'
_symmetry_space_group_name_H-M    'P1'
_cell_length_a                    37.4129982
_cell_length_b                    37.1129990
_cell_length_c                    8.2040005
_cell_angle_alpha                 90.0000000
_cell_angle_beta                  89.1129990
_cell_angle_gamma                 90.0000000
loop_
_atom_site_label
_atom_site_type_symbol
_atom_site_fract_x
_atom_site_fract_y
_atom_site_fract_z
_atom_site_U_iso_or_equiv
_atom_site_adp_type
_atom_site_occupancy
        C1          C  0.2663000  0.7579100  0.4875000    0.00000       Uiso       1.00
        C2          C  0.2334000  0.7329900  0.4874500    0.00000       Uiso       1.00
        C3          C  0.2493000  0.7458100  0.7462300    0.00000       Uiso       1.00
        C4          C  0.2260000  0.7701500  0.8526500    0.00000       Uiso       1.00
        C5          C  0.2337000  0.8187500  0.4403200    0.00000       Uiso       1.00
        C6          C  0.2364000  0.8380200  0.5879300    0.00000       Uiso       1.00
        C7          C  0.2102000  0.8626099  0.6360000    0.00000       Uiso       1.00
        C8          C  0.1804000  0.8688500  0.5381600    0.00000       Uiso       1.00
        C9          C  0.1772000  0.8498700  0.3913900    0.00000       Uiso       1.00
       C10          C  0.2035000  0.8254700  0.3423900    0.00000       Uiso       1.00
       C11          C  0.2646000  0.7939500  0.3835400    0.00000       Uiso       1.00
       C12          C  0.1533000  0.8955100  0.5904200    0.00000       Uiso       1.00
       C13          C  0.0953000  0.9234301  0.5613800    0.00000       Uiso       1.00
       N14          N  0.1231000  0.8987399  0.5149100    0.00000       Uiso       1.00
       C15          C  0.2996000  0.8159800  0.3923600    0.00000       Uiso       1.00
       C16          C  0.3304000  0.8044800  0.4765600    0.00000       Uiso       1.00
       C17          C  0.3610000  0.8257900  0.4811200    0.00000       Uiso       1.00
       C18          C  0.3623000  0.8591500  0.4017900    0.00000       Uiso       1.00
       C19          C  0.3323000  0.8706500  0.3152300    0.00000       Uiso       1.00
       C20          C  0.3016000  0.8492700  0.3096100    0.00000       Uiso       1.00
       C21          C  0.2724000  0.7215600  0.8529400    0.00000       Uiso       1.00
       C22          C  0.3955000  0.8808500  0.4077900    0.00000       Uiso       1.00
       N23          N  0.3970000  0.9128699  0.3438900    0.00000       Uiso       1.00
       C24          C  0.4277000  0.9361000  0.3331300    0.00000       Uiso       1.00
       C25          C  0.2664000  0.6720400  0.4470600    0.00000       Uiso       1.00
       C26          C  0.2972000  0.6652100  0.3517100    0.00000       Uiso       1.00
       C27          C  0.3231000  0.6408000  0.4031000    0.00000       Uiso       1.00
       C28          C  0.3190000  0.6219000  0.5497300    0.00000       Uiso       1.00
       C29          C  0.2887000  0.6283900  0.6454900    0.00000       Uiso       1.00
       C30          C  0.2628000  0.6530200  0.5950800    0.00000       Uiso       1.00
       C31          C  0.2357000  0.6965500  0.3866100    0.00000       Uiso       1.00
       C32          C  0.3455000  0.5948800  0.6033900    0.00000       Uiso       1.00
       C33          C  0.4027000  0.5653500  0.5753600    0.00000       Uiso       1.00
       N34          N  0.3758000  0.5908800  0.5282800    0.00000       Uiso       1.00
       C35          C  0.2007000  0.6744600  0.3950300    0.00000       Uiso       1.00
       C36          C  0.1994000  0.6407400  0.3158100    0.00000       Uiso       1.00
       C37          C  0.1688000  0.6192600  0.3214600    0.00000       Uiso       1.00
       C38          C  0.1381000  0.6311100  0.4039800    0.00000       Uiso       1.00
       C39          C  0.1388000  0.6649100  0.4794900    0.00000       Uiso       1.00
       C40          C  0.1694000  0.6863100  0.4753300    0.00000       Uiso       1.00
       C41          C  0.1051000  0.6092600  0.4092800    0.00000       Uiso       1.00
       N42          N  0.1046000  0.5763600  0.3551800    0.00000       Uiso       1.00
       C43          C  0.0743000  0.5527100  0.3452500    0.00000       Uiso       1.00
       O44          O  0.2720000  0.7671500  0.6501200    0.00000       Uiso       1.00
       O45          O  0.2401000  0.7047500  0.2206500    0.00000       Uiso       1.00
       O46          O  0.2268000  0.7244000  0.6504000    0.00000       Uiso       1.00
       O47          O  0.2610000  0.7851000  0.2180200    0.00000       Uiso       1.00
       C48          C  0.1027000  0.9566500  0.6363100    0.00000       Uiso       1.00
       C49          C  0.0750000  0.9779600  0.6975500    0.00000       Uiso       1.00
       C50          C  0.0395000  0.9665700  0.6847100    0.00000       Uiso       1.00
       C51          C  0.0321000  0.9345700  0.6005600    0.00000       Uiso       1.00
       C52          C  0.0598000  0.9134800  0.5372500    0.00000       Uiso       1.00
       C53          C  0.3939000  0.5321300  0.6472400    0.00000       Uiso       1.00
       C54          C  0.4206000  0.5097600  0.7084300    0.00000       Uiso       1.00
       C55          C  0.4565000  0.5200600  0.6986700    0.00000       Uiso       1.00
       C56          C  0.4653000  0.5521800  0.6182700    0.00000       Uiso       1.00
       C57          C  0.4386000  0.5743200  0.5545400    0.00000       Uiso       1.00
       C58          C  0.0389000  0.5651000  0.3522900    0.00000       Uiso       1.00
       C59          C  0.0105000  0.5414900  0.3215700    0.00000       Uiso       1.00
       C60          C  0.0170000  0.5052000  0.2841600    0.00000       Uiso       1.00
       C61          C  0.0805000  0.5162700  0.3126600    0.00000       Uiso       1.00
       C62          C  0.4627000  0.9240100  0.3597900    0.00000       Uiso       1.00
       C63          C  0.4918000  0.9467201  0.3279000    0.00000       Uiso       1.00
       C64          C  0.4864000  0.9819100  0.2708500    0.00000       Uiso       1.00
       C65          C  0.4514000  0.9942700  0.2503600    0.00000       Uiso       1.00
       C66          C  0.4225000  0.9715500  0.2805800    0.00000       Uiso       1.00
       C67          C  0.5167000  0.0022600  0.1917200    0.00000       Uiso       1.00
       C68          C  0.0116000  0.9827099  0.7947200    0.00000       Uiso       1.00
       C69          C  0.2360300  0.2194100  0.5148000    0.00000       Uiso       1.00
       C70          C  0.2652000  0.2484200  0.5001000    0.00000       Uiso       1.00
       C71          C  0.2535200  0.2366700  0.7651300    0.00000       Uiso       1.00
       C72          C  0.2751300  0.2100800  0.8666600    0.00000       Uiso       1.00
       C73          C  0.1748200  0.1926500  0.4298300    0.00000       Uiso       1.00
       C74          C  0.1820500  0.1615400  0.5235500    0.00000       Uiso       1.00
       C75          C  0.1579300  0.1329600  0.5305800    0.00000       Uiso       1.00
       C76          C  0.1259000  0.1342100  0.4445400    0.00000       Uiso       1.00
       C77          C  0.1182900  0.1648600  0.3510000    0.00000       Uiso       1.00
       C78          C  0.1424400  0.1935400  0.3434900    0.00000       Uiso       1.00
       C79          C  0.2003300  0.2252700  0.4161300    0.00000       Uiso       1.00
       C80          C  0.1019900  0.1025300  0.4488800    0.00000       Uiso       1.00
       C81          C  0.0486800  0.0716200  0.3540600    0.00000       Uiso       1.00
       N82          N  0.0718800  0.1022600  0.3713900    0.00000       Uiso       1.00
       C83          C  0.1798900  0.2590100  0.4764400    0.00000       Uiso       1.00
       C84          C  0.1618300  0.2580800  0.6275300    0.00000       Uiso       1.00
       C85          C  0.1402500  0.2866200  0.6779700    0.00000       Uiso       1.00
       C86          C  0.1359900  0.3171200  0.5795900    0.00000       Uiso       1.00
       C87          C  0.1543300  0.3188900  0.4306800    0.00000       Uiso       1.00
       C88          C  0.1757500  0.2901900  0.3791100    0.00000       Uiso       1.00
       C89          C  0.2349300  0.2640700  0.8756100    0.00000       Uiso       1.00
       C90          C  0.1108500  0.3455700  0.6316000    0.00000       Uiso       1.00
       N91          N  0.1083600  0.3762300  0.5555900    0.00000       Uiso       1.00
       C92          C  0.0828100  0.4034100  0.5999900    0.00000       Uiso       1.00
       C93          C  0.3251900  0.2701000  0.3704200    0.00000       Uiso       1.00
       C94          C  0.3548200  0.2647900  0.2670800    0.00000       Uiso       1.00
       C95          C  0.3813300  0.2908400  0.2515300    0.00000       Uiso       1.00
       C96          C  0.3791400  0.3232400  0.3380800    0.00000       Uiso       1.00
       C97          C  0.3493200  0.3294900  0.4378900    0.00000       Uiso       1.00
       C98          C  0.3225600  0.3034000  0.4533400    0.00000       Uiso       1.00
       C99          C  0.2987700  0.2385900  0.3911000    0.00000       Uiso       1.00
      C100          C  0.4080300  0.3499900  0.3188900    0.00000       Uiso       1.00
      C101          C  0.4339300  0.4084600  0.3757400    0.00000       Uiso       1.00
      N102          N  0.4076000  0.3806300  0.3956500    0.00000       Uiso       1.00
      C103          C  0.3202200  0.2067000  0.4629300    0.00000       Uiso       1.00
      C104          C  0.3228500  0.1729500  0.3837100    0.00000       Uiso       1.00
      C105          C  0.3461500  0.1463600  0.4398400    0.00000       Uiso       1.00
      C106          C  0.3677500  0.1527400  0.5755200    0.00000       Uiso       1.00
      C107          C  0.3647900  0.1857100  0.6572400    0.00000       Uiso       1.00
      C108          C  0.3415400  0.2122700  0.6017500    0.00000       Uiso       1.00
      C109          C  0.3948000  0.1264900  0.6294600    0.00000       Uiso       1.00
      N110          N  0.3984000  0.0951300  0.5604800    0.00000       Uiso       1.00
      C111          C  0.4257100  0.0697700  0.6035600    0.00000       Uiso       1.00
      O112          O  0.2276700  0.2171300  0.6800600    0.00000       Uiso       1.00
      O113          O  0.2873000  0.2306700  0.2322900    0.00000       Uiso       1.00
      O114          O  0.2763600  0.2554300  0.6589100    0.00000       Uiso       1.00
      O115          O  0.2083200  0.2281400  0.2489200    0.00000       Uiso       1.00
      C116          C  0.0136600  0.0772900  0.3022100    0.00000       Uiso       1.00
      C117          C  0.9917000  0.0481700  0.2623100    0.00000       Uiso       1.00
      C118          C  0.0044400  0.0127300  0.2729900    0.00000       Uiso       1.00
      C119          C  0.0391600  0.0070200  0.3291300    0.00000       Uiso       1.00
      C120          C  0.0610500  0.0360100  0.3698700    0.00000       Uiso       1.00
      C121          C  0.4688500  0.4011700  0.3220400    0.00000       Uiso       1.00
      C122          C  0.4917900  0.4293800  0.2800900    0.00000       Uiso       1.00
      C123          C  0.4805100  0.4652900  0.2932500    0.00000       Uiso       1.00
      C124          C  0.4466000  0.4724400  0.3576900    0.00000       Uiso       1.00
      C125          C  0.4237400  0.4442800  0.4007200    0.00000       Uiso       1.00
      C126          C  0.4593900  0.0812800  0.6557100    0.00000       Uiso       1.00
      C127          C  0.4845700  0.0563500  0.7082300    0.00000       Uiso       1.00
      C128          C  0.4769400  0.0193400  0.7075900    0.00000       Uiso       1.00
      C129          C  0.4439300  0.0076800  0.6486900    0.00000       Uiso       1.00
      C130          C  0.4186500  0.0327600  0.5952100    0.00000       Uiso       1.00
      C131          C  0.0485200  0.3940500  0.6539000    0.00000       Uiso       1.00
      C132          C  0.0252300  0.4204000  0.7114600    0.00000       Uiso       1.00
      C133          C  0.0355200  0.4567400  0.7153600    0.00000       Uiso       1.00
      C134          C  0.0690700  0.4663800  0.6536100    0.00000       Uiso       1.00
      C135          C  0.0923400  0.4399000  0.5938400    0.00000       Uiso       1.00
      C136          C  0.0142200  0.4828500  0.8167100    0.00000       Uiso       1.00
      C137          C  0.4995000  0.4941800  0.1982300    0.00000       Uiso       1.00
      C138          C  0.9477400  0.9927300  0.7169600    0.00000       Uiso       1.00
      H139          H  0.2895000  0.7419400  0.4449200    0.00000       Uiso       1.00
      H140          H  0.2105000  0.7487800  0.4419700    0.00000       Uiso       1.00
      H141          H  0.2113000  0.7539900  0.9447500    0.00000       Uiso       1.00
      H142          H  0.2061000  0.7842400  0.7762500    0.00000       Uiso       1.00
      H143          H  0.2425000  0.7907000  0.9147600    0.00000       Uiso       1.00
      H144          H  0.2594000  0.8346800  0.6651700    0.00000       Uiso       1.00
      H145          H  0.2134000  0.8770099  0.7497400    0.00000       Uiso       1.00
      H146          H  0.1546000  0.8543400  0.3124600    0.00000       Uiso       1.00
      H147          H  0.1998000  0.8126700  0.2256900    0.00000       Uiso       1.00
      H148          H  0.1585000  0.9112600  0.6988700    0.00000       Uiso       1.00
      H149          H  0.3316000  0.7790100  0.5392600    0.00000       Uiso       1.00
      H150          H  0.3840000  0.8160600  0.5471100    0.00000       Uiso       1.00
      H151          H  0.3325000  0.8960700  0.2508200    0.00000       Uiso       1.00
      H152          H  0.2790000  0.8589200  0.2408500    0.00000       Uiso       1.00
      H153          H  0.2925000  0.7075100  0.7768300    0.00000       Uiso       1.00
      H154          H  0.2558000  0.7009900  0.9149800    0.00000       Uiso       1.00
      H155          H  0.2869000  0.7377900  0.9449500    0.00000       Uiso       1.00
      H156          H  0.4184000  0.8693500  0.4670100    0.00000       Uiso       1.00
      H157          H  0.3016000  0.6778600  0.2350400    0.00000       Uiso       1.00
      H158          H  0.3461000  0.6362000  0.3259100    0.00000       Uiso       1.00
      H159          H  0.2848000  0.6140700  0.7591500    0.00000       Uiso       1.00
      H160          H  0.2394000  0.6565200  0.6705900    0.00000       Uiso       1.00
      H161          H  0.3396000  0.5792800  0.7117700    0.00000       Uiso       1.00
      H162          H  0.2224000  0.6308100  0.2499400    0.00000       Uiso       1.00
      H163          H  0.1691000  0.5934900  0.2599500    0.00000       Uiso       1.00
      H164          H  0.1154000  0.6749000  0.5423400    0.00000       Uiso       1.00
      H165          H  0.1678000  0.7120900  0.5352100    0.00000       Uiso       1.00
      H166          H  0.0813000  0.6212300  0.4607400    0.00000       Uiso       1.00
      H167          H  0.2625000  0.7184300  0.2074400    0.00000       Uiso       1.00
      H168          H  0.2386000  0.7714600  0.2047000    0.00000       Uiso       1.00
      H169          H  0.1298000  0.9656500  0.6519300    0.00000       Uiso       1.00
      H170          H  0.0815000  0.0023600  0.7632300    0.00000       Uiso       1.00
      H171          H  0.0051000  0.9247100  0.5943800    0.00000       Uiso       1.00
      H172          H  0.0536000  0.8881400  0.4787800    0.00000       Uiso       1.00
      H173          H  0.3665000  0.5238800  0.6601700    0.00000       Uiso       1.00
      H174          H  0.4130000  0.4853000  0.7713200    0.00000       Uiso       1.00
      H175          H  0.4927000  0.5612800  0.6152900    0.00000       Uiso       1.00
      H176          H  0.4459000  0.5996600  0.4983900    0.00000       Uiso       1.00
      H177          H  0.0329000  0.5931700  0.3729700    0.00000       Uiso       1.00
      H178          H  0.9837000  0.5520100  0.3172700    0.00000       Uiso       1.00
      H179          H  0.1075000  0.5062800  0.3048900    0.00000       Uiso       1.00
      H180          H  0.4681000  0.8966699  0.3966900    0.00000       Uiso       1.00
      H181          H  0.5185000  0.9361101  0.3381000    0.00000       Uiso       1.00
      H182          H  0.4465000  0.0209400  0.2023400    0.00000       Uiso       1.00
      H183          H  0.3958000  0.9812800  0.2578100    0.00000       Uiso       1.00
      H184          H  0.5057000  0.0240100  0.1142600    0.00000       Uiso       1.00
      H185          H  0.5307000  0.9831800  0.1089900    0.00000       Uiso       1.00
      H186          H  0.0245000  0.9994800  0.8896500    0.00000       Uiso       1.00
      H187          H  0.9989000  0.9597701  0.8591500    0.00000       Uiso       1.00
      H188          H  0.2477800  0.1932300  0.4777600    0.00000       Uiso       1.00
      H189          H  0.2530500  0.2734900  0.4519400    0.00000       Uiso       1.00
      H190          H  0.2855100  0.1881700  0.7878000    0.00000       Uiso       1.00
      H191          H  0.2579800  0.1974300  0.9611000    0.00000       Uiso       1.00
      H192          H  0.2979800  0.2238700  0.9247200    0.00000       Uiso       1.00
      H193          H  0.2062300  0.1583700  0.5920000    0.00000       Uiso       1.00
      H194          H  0.1645700  0.1095200  0.6028200    0.00000       Uiso       1.00
      H195          H  0.0938700  0.1665600  0.2820800    0.00000       Uiso       1.00
      H196          H  0.1358500  0.2166900  0.2693900    0.00000       Uiso       1.00
      H197          H  0.1106100  0.0790800  0.5160700    0.00000       Uiso       1.00
      H198          H  0.1633200  0.2345600  0.7049100    0.00000       Uiso       1.00
      H199          H  0.1262300  0.2845000  0.7932100    0.00000       Uiso       1.00
      H200          H  0.1513000  0.3419900  0.3515500    0.00000       Uiso       1.00
      H201          H  0.1881000  0.2926600  0.2606300    0.00000       Uiso       1.00
      H202          H  0.2134000  0.2508500  0.9464000    0.00000       Uiso       1.00
      H203          H  0.2228100  0.2856700  0.8007100    0.00000       Uiso       1.00
      H204          H  0.2542000  0.2766700  0.9604200    0.00000       Uiso       1.00
      H205          H  0.0943800  0.3404000  0.7378700    0.00000       Uiso       1.00
      H206          H  0.3577700  0.2398400  0.2000800    0.00000       Uiso       1.00
      H207          H  0.4038400  0.2854700  0.1723500    0.00000       Uiso       1.00
      H208          H  0.3466700  0.3545200  0.5044500    0.00000       Uiso       1.00
      H209          H  0.3003400  0.3097200  0.5318300    0.00000       Uiso       1.00
      H210          H  0.4289200  0.3441300  0.2316300    0.00000       Uiso       1.00
      H211          H  0.3080600  0.1668600  0.2748300    0.00000       Uiso       1.00
      H212          H  0.3479900  0.1211900  0.3738400    0.00000       Uiso       1.00
      H213          H  0.3812600  0.1913800  0.7620400    0.00000       Uiso       1.00
      H214          H  0.3412900  0.2378800  0.6645100    0.00000       Uiso       1.00
      H215          H  0.4119200  0.1340400  0.7296500    0.00000       Uiso       1.00
      H216          H  0.2711700  0.2097000  0.2362200    0.00000       Uiso       1.00
      H217          H  0.2245700  0.2487400  0.2324000    0.00000       Uiso       1.00
      H218          H  0.0038100  0.1044400  0.2868800    0.00000       Uiso       1.00
      H219          H  0.9654000  0.0534100  0.2143400    0.00000       Uiso       1.00
      H220          H  0.0502500  0.9801000  0.3299800    0.00000       Uiso       1.00
      H221          H  0.0882300  0.0303000  0.4031600    0.00000       Uiso       1.00
      H222          H  0.4781600  0.3738300  0.3072700    0.00000       Uiso       1.00
      H223          H  0.5176400  0.4231300  0.2286200    0.00000       Uiso       1.00
      H224          H  0.4368400  0.4998200  0.3630200    0.00000       Uiso       1.00
      H225          H  0.3971000  0.4504300  0.4428300    0.00000       Uiso       1.00
      H226          H  0.4661300  0.1095800  0.6582400    0.00000       Uiso       1.00
      H227          H  0.5096500  0.0661500  0.7548900    0.00000       Uiso       1.00
      H228          H  0.4371500  0.9793999  0.6511500    0.00000       Uiso       1.00
      H229          H  0.3929600  0.0234200  0.5539200    0.00000       Uiso       1.00
      H230          H  0.0400200  0.3662200  0.6551500    0.00000       Uiso       1.00
      H231          H  0.9996000  0.4121200  0.7596600    0.00000       Uiso       1.00
      H232          H  0.0778400  0.4941100  0.6591000    0.00000       Uiso       1.00
      H233          H  0.1185200  0.4476300  0.5510100    0.00000       Uiso       1.00
      H234          H  0.0318700  0.4942200  0.9120000    0.00000       Uiso       1.00
      H235          H  0.9933000  0.4675400  0.8815700    0.00000       Uiso       1.00
      H236          H  0.4785600  0.5101900  0.1373500    0.00000       Uiso       1.00
      H237          H  0.5159100  0.4817400  0.1003500    0.00000       Uiso       1.00
      H238          H  0.9418500  0.9651100  0.7493900    0.00000       Uiso       1.00
      C239          C  0.7337000  0.2579100  0.5125000    0.00000       Uiso       1.00
      C240          C  0.7666000  0.2329900  0.5125500    0.00000       Uiso       1.00
      C241          C  0.7507000  0.2458100  0.2537700    0.00000       Uiso       1.00
      C242          C  0.7740000  0.2701500  0.1473500    0.00000       Uiso       1.00
      C243          C  0.7663000  0.3187500  0.5596800    0.00000       Uiso       1.00
      C244          C  0.7636000  0.3380200  0.4120700    0.00000       Uiso       1.00
      C245          C  0.7898000  0.3626100  0.3640000    0.00000       Uiso       1.00
      C246          C  0.8196000  0.3688500  0.4618400    0.00000       Uiso       1.00
      C247          C  0.8228000  0.3498700  0.6086100    0.00000       Uiso       1.00
      C248          C  0.7965000  0.3254700  0.6576100    0.00000       Uiso       1.00
      C249          C  0.7354000  0.2939500  0.6164600    0.00000       Uiso       1.00
      C250          C  0.8467000  0.3955100  0.4095800    0.00000       Uiso       1.00
      C251          C  0.9047000  0.4234300  0.4386200    0.00000       Uiso       1.00
      N252          N  0.8769000  0.3987400  0.4850900    0.00000       Uiso       1.00
      C253          C  0.7004000  0.3159800  0.6076400    0.00000       Uiso       1.00
      C254          C  0.6696000  0.3044800  0.5234400    0.00000       Uiso       1.00
      C255          C  0.6390000  0.3257900  0.5188800    0.00000       Uiso       1.00
      C256          C  0.6377000  0.3591500  0.5982100    0.00000       Uiso       1.00
      C257          C  0.6677000  0.3706500  0.6847700    0.00000       Uiso       1.00
      C258          C  0.6984000  0.3492700  0.6903900    0.00000       Uiso       1.00
      C259          C  0.7276000  0.2215600  0.1470600    0.00000       Uiso       1.00
      C260          C  0.6045000  0.3808500  0.5922100    0.00000       Uiso       1.00
      N261          N  0.6030000  0.4128700  0.6561100    0.00000       Uiso       1.00
      C262          C  0.5723000  0.4361000  0.6668700    0.00000       Uiso       1.00
      C263          C  0.7336000  0.1720400  0.5529400    0.00000       Uiso       1.00
      C264          C  0.7028000  0.1652100  0.6482900    0.00000       Uiso       1.00
      C265          C  0.6769000  0.1408000  0.5969000    0.00000       Uiso       1.00
      C266          C  0.6810000  0.1219000  0.4502700    0.00000       Uiso       1.00
      C267          C  0.7113000  0.1283900  0.3545100    0.00000       Uiso       1.00
      C268          C  0.7372000  0.1530200  0.4049200    0.00000       Uiso       1.00
      C269          C  0.7643000  0.1965500  0.6133900    0.00000       Uiso       1.00
      C270          C  0.6545000  0.0948800  0.3966100    0.00000       Uiso       1.00
      C271          C  0.5973000  0.0653500  0.4246400    0.00000       Uiso       1.00
      N272          N  0.6242000  0.0908800  0.4717200    0.00000       Uiso       1.00
      C273          C  0.7993000  0.1744600  0.6049700    0.00000       Uiso       1.00
      C274          C  0.8006000  0.1407400  0.6841900    0.00000       Uiso       1.00
      C275          C  0.8312000  0.1192600  0.6785400    0.00000       Uiso       1.00
      C276          C  0.8619000  0.1311100  0.5960200    0.00000       Uiso       1.00
      C277          C  0.8612000  0.1649100  0.5205100    0.00000       Uiso       1.00
      C278          C  0.8306000  0.1863100  0.5246700    0.00000       Uiso       1.00
      C279          C  0.8949000  0.1092600  0.5907200    0.00000       Uiso       1.00
      N280          N  0.8953999  0.0763600  0.6448200    0.00000       Uiso       1.00
      C281          C  0.9256999  0.0527100  0.6547500    0.00000       Uiso       1.00
      O282          O  0.7280000  0.2671500  0.3498800    0.00000       Uiso       1.00
      O283          O  0.7599000  0.2047500  0.7793500    0.00000       Uiso       1.00
      O284          O  0.7732000  0.2244000  0.3496000    0.00000       Uiso       1.00
      O285          O  0.7390000  0.2851000  0.7819800    0.00000       Uiso       1.00
      C286          C  0.8972999  0.4566500  0.3636900    0.00000       Uiso       1.00
      C287          C  0.9250000  0.4779600  0.3024500    0.00000       Uiso       1.00
      C288          C  0.9605000  0.4665700  0.3152900    0.00000       Uiso       1.00
      C289          C  0.9679000  0.4345700  0.3994400    0.00000       Uiso       1.00
      C290          C  0.9402000  0.4134800  0.4627500    0.00000       Uiso       1.00
      C291          C  0.6061000  0.0321300  0.3527600    0.00000       Uiso       1.00
      C292          C  0.5794000  0.0097600  0.2915700    0.00000       Uiso       1.00
      C293          C  0.5435000  0.0200600  0.3013300    0.00000       Uiso       1.00
      C294          C  0.5347000  0.0521800  0.3817300    0.00000       Uiso       1.00
      C295          C  0.5614000  0.0743200  0.4454600    0.00000       Uiso       1.00
      C296          C  0.9611000  0.0651000  0.6477100    0.00000       Uiso       1.00
      C297          C  0.9895000  0.0414900  0.6784300    0.00000       Uiso       1.00
      C298          C  0.9830000  0.0052000  0.7158400    0.00000       Uiso       1.00
      C299          C  0.9195000  0.0162700  0.6873400    0.00000       Uiso       1.00
      C300          C  0.5373000  0.4240100  0.6402100    0.00000       Uiso       1.00
      C301          C  0.5082000  0.4467200  0.6721000    0.00000       Uiso       1.00
      C302          C  0.5136000  0.4819100  0.7291500    0.00000       Uiso       1.00
      C303          C  0.5486000  0.4942700  0.7496400    0.00000       Uiso       1.00
      C304          C  0.5775000  0.4715500  0.7194200    0.00000       Uiso       1.00
      C305          C  0.4833000  0.5022600  0.8082800    0.00000       Uiso       1.00
      C306          C  0.9884000  0.4827100  0.2052800    0.00000       Uiso       1.00
      C307          C  0.7639700  0.7194100  0.4852000    0.00000       Uiso       1.00
      C308          C  0.7348000  0.7484200  0.4999000    0.00000       Uiso       1.00
      C309          C  0.7464800  0.7366700  0.2348700    0.00000       Uiso       1.00
      C310          C  0.7248700  0.7100800  0.1333400    0.00000       Uiso       1.00
      C311          C  0.8251800  0.6926500  0.5701700    0.00000       Uiso       1.00
      C312          C  0.8179500  0.6615400  0.4764500    0.00000       Uiso       1.00
      C313          C  0.8420700  0.6329600  0.4694200    0.00000       Uiso       1.00
      C314          C  0.8741000  0.6342100  0.5554600    0.00000       Uiso       1.00
      C315          C  0.8817100  0.6648600  0.6490000    0.00000       Uiso       1.00
      C316          C  0.8575600  0.6935400  0.6565100    0.00000       Uiso       1.00
      C317          C  0.7996700  0.7252700  0.5838700    0.00000       Uiso       1.00
      C318          C  0.8980100  0.6025300  0.5511200    0.00000       Uiso       1.00
      C319          C  0.9513199  0.5716200  0.6459400    0.00000       Uiso       1.00
      N320          N  0.9281201  0.6022600  0.6286100    0.00000       Uiso       1.00
      C321          C  0.8201100  0.7590100  0.5235600    0.00000       Uiso       1.00
      C322          C  0.8381700  0.7580800  0.3724700    0.00000       Uiso       1.00
      C323          C  0.8597500  0.7866200  0.3220300    0.00000       Uiso       1.00
      C324          C  0.8640100  0.8171200  0.4204100    0.00000       Uiso       1.00
      C325          C  0.8456700  0.8188900  0.5693200    0.00000       Uiso       1.00
      C326          C  0.8242500  0.7901900  0.6208900    0.00000       Uiso       1.00
      C327          C  0.7650700  0.7640700  0.1243900    0.00000       Uiso       1.00
      C328          C  0.8891501  0.8455700  0.3684000    0.00000       Uiso       1.00
      N329          N  0.8916400  0.8762300  0.4444100    0.00000       Uiso       1.00
      C330          C  0.9171900  0.9034100  0.4000100    0.00000       Uiso       1.00
      C331          C  0.6748100  0.7701000  0.6295800    0.00000       Uiso       1.00
      C332          C  0.6451800  0.7647900  0.7329200    0.00000       Uiso       1.00
      C333          C  0.6186700  0.7908400  0.7484700    0.00000       Uiso       1.00
      C334          C  0.6208600  0.8232400  0.6619200    0.00000       Uiso       1.00
      C335          C  0.6506800  0.8294900  0.5621100    0.00000       Uiso       1.00
      C336          C  0.6774400  0.8034000  0.5466600    0.00000       Uiso       1.00
      C337          C  0.7012300  0.7385900  0.6089000    0.00000       Uiso       1.00
      C338          C  0.5919700  0.8499900  0.6811100    0.00000       Uiso       1.00
      C339          C  0.5660700  0.9084600  0.6242600    0.00000       Uiso       1.00
      N340          N  0.5924000  0.8806300  0.6043500    0.00000       Uiso       1.00
      C341          C  0.6797800  0.7067000  0.5370700    0.00000       Uiso       1.00
      C342          C  0.6771500  0.6729500  0.6162900    0.00000       Uiso       1.00
      C343          C  0.6538500  0.6463600  0.5601600    0.00000       Uiso       1.00
      C344          C  0.6322500  0.6527400  0.4244800    0.00000       Uiso       1.00
      C345          C  0.6352100  0.6857100  0.3427600    0.00000       Uiso       1.00
      C346          C  0.6584600  0.7122700  0.3982500    0.00000       Uiso       1.00
      C347          C  0.6052000  0.6264900  0.3705400    0.00000       Uiso       1.00
      N348          N  0.6016000  0.5951300  0.4395200    0.00000       Uiso       1.00
      C349          C  0.5742900  0.5697700  0.3964400    0.00000       Uiso       1.00
      O350          O  0.7723300  0.7171300  0.3199400    0.00000       Uiso       1.00
      O351          O  0.7127000  0.7306700  0.7677100    0.00000       Uiso       1.00
      O352          O  0.7236400  0.7554300  0.3410900    0.00000       Uiso       1.00
      O353          O  0.7916800  0.7281400  0.7510800    0.00000       Uiso       1.00
      C354          C  0.9863399  0.5772900  0.6977900    0.00000       Uiso       1.00
      C355          C  0.0083000  0.5481700  0.7376900    0.00000       Uiso       1.00
      C356          C  0.9955599  0.5127300  0.7270100    0.00000       Uiso       1.00
      C357          C  0.9608400  0.5070200  0.6708700    0.00000       Uiso       1.00
      C358          C  0.9389500  0.5360100  0.6301300    0.00000       Uiso       1.00
      C359          C  0.5311500  0.9011700  0.6779600    0.00000       Uiso       1.00
      C360          C  0.5082100  0.9293801  0.7199100    0.00000       Uiso       1.00
      C361          C  0.5194900  0.9652900  0.7067500    0.00000       Uiso       1.00
      C362          C  0.5534000  0.9724400  0.6423100    0.00000       Uiso       1.00
      C363          C  0.5762600  0.9442800  0.5992800    0.00000       Uiso       1.00
      C364          C  0.5406100  0.5812800  0.3442900    0.00000       Uiso       1.00
      C365          C  0.5154300  0.5563500  0.2917700    0.00000       Uiso       1.00
      C366          C  0.5230600  0.5193400  0.2924100    0.00000       Uiso       1.00
      C367          C  0.5560700  0.5076800  0.3513100    0.00000       Uiso       1.00
      C368          C  0.5813500  0.5327600  0.4047900    0.00000       Uiso       1.00
      C369          C  0.9514800  0.8940500  0.3461000    0.00000       Uiso       1.00
      C370          C  0.9747700  0.9204000  0.2885400    0.00000       Uiso       1.00
      C371          C  0.9644800  0.9567400  0.2846400    0.00000       Uiso       1.00
      C372          C  0.9309300  0.9663801  0.3463900    0.00000       Uiso       1.00
      C373          C  0.9076600  0.9399000  0.4061600    0.00000       Uiso       1.00
      C374          C  0.9857800  0.9828501  0.1832900    0.00000       Uiso       1.00
      C375          C  0.5005000  0.9941800  0.8017700    0.00000       Uiso       1.00
      C376          C  0.0522600  0.4927300  0.2830400    0.00000       Uiso       1.00
      H377          H  0.7105000  0.2419400  0.5550800    0.00000       Uiso       1.00
      H378          H  0.7895000  0.2487800  0.5580300    0.00000       Uiso       1.00
      H379          H  0.7887000  0.2539900  0.0552500    0.00000       Uiso       1.00
      H380          H  0.7939000  0.2842400  0.2237500    0.00000       Uiso       1.00
      H381          H  0.7575000  0.2907000  0.0852400    0.00000       Uiso       1.00
      H382          H  0.7406000  0.3346800  0.3348300    0.00000       Uiso       1.00
      H383          H  0.7866000  0.3770100  0.2502600    0.00000       Uiso       1.00
      H384          H  0.8454000  0.3543400  0.6875400    0.00000       Uiso       1.00
      H385          H  0.8002000  0.3126700  0.7743100    0.00000       Uiso       1.00
      H386          H  0.8415000  0.4112600  0.3011300    0.00000       Uiso       1.00
      H387          H  0.6684000  0.2790100  0.4607400    0.00000       Uiso       1.00
      H388          H  0.6160000  0.3160600  0.4528900    0.00000       Uiso       1.00
      H389          H  0.6675000  0.3960700  0.7491800    0.00000       Uiso       1.00
      H390          H  0.7210000  0.3589200  0.7591500    0.00000       Uiso       1.00
      H391          H  0.7075000  0.2075100  0.2231700    0.00000       Uiso       1.00
      H392          H  0.7442000  0.2009900  0.0850200    0.00000       Uiso       1.00
      H393          H  0.7131000  0.2377900  0.0550500    0.00000       Uiso       1.00
      H394          H  0.5816000  0.3693500  0.5329900    0.00000       Uiso       1.00
      H395          H  0.6984000  0.1778600  0.7649600    0.00000       Uiso       1.00
      H396          H  0.6539000  0.1362000  0.6740900    0.00000       Uiso       1.00
      H397          H  0.7152000  0.1140700  0.2408500    0.00000       Uiso       1.00
      H398          H  0.7606000  0.1565200  0.3294100    0.00000       Uiso       1.00
      H399          H  0.6604000  0.0792800  0.2882300    0.00000       Uiso       1.00
      H400          H  0.7776000  0.1308100  0.7500600    0.00000       Uiso       1.00
      H401          H  0.8309000  0.0934900  0.7400500    0.00000       Uiso       1.00
      H402          H  0.8845999  0.1749000  0.4576600    0.00000       Uiso       1.00
      H403          H  0.8322000  0.2120900  0.4647900    0.00000       Uiso       1.00
      H404          H  0.9187000  0.1212300  0.5392600    0.00000       Uiso       1.00
      H405          H  0.7375000  0.2184300  0.7925600    0.00000       Uiso       1.00
      H406          H  0.7614000  0.2714600  0.7953000    0.00000       Uiso       1.00
      H407          H  0.8701999  0.4656500  0.3480700    0.00000       Uiso       1.00
      H408          H  0.9185000  0.5023600  0.2367700    0.00000       Uiso       1.00
      H409          H  0.9948999  0.4247100  0.4056200    0.00000       Uiso       1.00
      H410          H  0.9464000  0.3881400  0.5212200    0.00000       Uiso       1.00
      H411          H  0.6335000  0.0238800  0.3398300    0.00000       Uiso       1.00
      H412          H  0.5870000  0.9852999  0.2286800    0.00000       Uiso       1.00
      H413          H  0.5073000  0.0612800  0.3847100    0.00000       Uiso       1.00
      H414          H  0.5541000  0.0996600  0.5016100    0.00000       Uiso       1.00
      H415          H  0.9671000  0.0931700  0.6270300    0.00000       Uiso       1.00
      H416          H  0.0163000  0.0520100  0.6827300    0.00000       Uiso       1.00
      H417          H  0.8925000  0.0062800  0.6951100    0.00000       Uiso       1.00
      H418          H  0.5319000  0.3966700  0.6033100    0.00000       Uiso       1.00
      H419          H  0.4815000  0.4361100  0.6619000    0.00000       Uiso       1.00
      H420          H  0.5535000  0.5209400  0.7976600    0.00000       Uiso       1.00
      H421          H  0.6042000  0.4812800  0.7421900    0.00000       Uiso       1.00
      H422          H  0.4943000  0.5240100  0.8857400    0.00000       Uiso       1.00
      H423          H  0.4693000  0.4831800  0.8910100    0.00000       Uiso       1.00
      H424          H  0.9755000  0.4994800  0.1103500    0.00000       Uiso       1.00
      H425          H  0.0011000  0.4597700  0.1408500    0.00000       Uiso       1.00
      H426          H  0.7522200  0.6932300  0.5222400    0.00000       Uiso       1.00
      H427          H  0.7469500  0.7734900  0.5480600    0.00000       Uiso       1.00
      H428          H  0.7144900  0.6881700  0.2122000    0.00000       Uiso       1.00
      H429          H  0.7420200  0.6974300  0.0389000    0.00000       Uiso       1.00
      H430          H  0.7020200  0.7238700  0.0752800    0.00000       Uiso       1.00
      H431          H  0.7937700  0.6583700  0.4080000    0.00000       Uiso       1.00
      H432          H  0.8354300  0.6095200  0.3971800    0.00000       Uiso       1.00
      H433          H  0.9061300  0.6665600  0.7179200    0.00000       Uiso       1.00
      H434          H  0.8641499  0.7166900  0.7306100    0.00000       Uiso       1.00
      H435          H  0.8893899  0.5790800  0.4839300    0.00000       Uiso       1.00
      H436          H  0.8366800  0.7345600  0.2950900    0.00000       Uiso       1.00
      H437          H  0.8737700  0.7845000  0.2067900    0.00000       Uiso       1.00
      H438          H  0.8487000  0.8419900  0.6484500    0.00000       Uiso       1.00
      H439          H  0.8119000  0.7926600  0.7393700    0.00000       Uiso       1.00
      H440          H  0.7866000  0.7508500  0.0536000    0.00000       Uiso       1.00
      H441          H  0.7771900  0.7856700  0.1992900    0.00000       Uiso       1.00
      H442          H  0.7458000  0.7766700  0.0395800    0.00000       Uiso       1.00
      H443          H  0.9056200  0.8404000  0.2621300    0.00000       Uiso       1.00
      H444          H  0.6422300  0.7398400  0.7999200    0.00000       Uiso       1.00
      H445          H  0.5961600  0.7854700  0.8276500    0.00000       Uiso       1.00
      H446          H  0.6533300  0.8545200  0.4955500    0.00000       Uiso       1.00
      H447          H  0.6996600  0.8097200  0.4681700    0.00000       Uiso       1.00
      H448          H  0.5710800  0.8441300  0.7683700    0.00000       Uiso       1.00
      H449          H  0.6919400  0.6668600  0.7251700    0.00000       Uiso       1.00
      H450          H  0.6520100  0.6211900  0.6261600    0.00000       Uiso       1.00
      H451          H  0.6187400  0.6913800  0.2379600    0.00000       Uiso       1.00
      H452          H  0.6587100  0.7378800  0.3354900    0.00000       Uiso       1.00
      H453          H  0.5880800  0.6340400  0.2703500    0.00000       Uiso       1.00
      H454          H  0.7288300  0.7097000  0.7637800    0.00000       Uiso       1.00
      H455          H  0.7754300  0.7487400  0.7676000    0.00000       Uiso       1.00
      H456          H  0.9961900  0.6044400  0.7131200    0.00000       Uiso       1.00
      H457          H  0.0346000  0.5534100  0.7856600    0.00000       Uiso       1.00
      H458          H  0.9497499  0.4801000  0.6700200    0.00000       Uiso       1.00
      H459          H  0.9117699  0.5303000  0.5968400    0.00000       Uiso       1.00
      H460          H  0.5218400  0.8738301  0.6927300    0.00000       Uiso       1.00
      H461          H  0.4823600  0.9231299  0.7713800    0.00000       Uiso       1.00
      H462          H  0.5631600  0.9998200  0.6369800    0.00000       Uiso       1.00
      H463          H  0.6029000  0.9504300  0.5571700    0.00000       Uiso       1.00
      H464          H  0.5338700  0.6095800  0.3417600    0.00000       Uiso       1.00
      H465          H  0.4903500  0.5661500  0.2451100    0.00000       Uiso       1.00
      H466          H  0.5628500  0.4794000  0.3488500    0.00000       Uiso       1.00
      H467          H  0.6070400  0.5234200  0.4460800    0.00000       Uiso       1.00
      H468          H  0.9599800  0.8662200  0.3448500    0.00000       Uiso       1.00
      H469          H  0.0004000  0.9121200  0.2403400    0.00000       Uiso       1.00
      H470          H  0.9221600  0.9941099  0.3409000    0.00000       Uiso       1.00
      H471          H  0.8814800  0.9476300  0.4489900    0.00000       Uiso       1.00
      H472          H  0.9681301  0.9942200  0.0880000    0.00000       Uiso       1.00
      H473          H  0.0067000  0.9675401  0.1184300    0.00000       Uiso       1.00
      H474          H  0.5214400  0.0101900  0.8626500    0.00000       Uiso       1.00
      H475          H  0.4840900  0.9817399  0.8996500    0.00000       Uiso       1.00
      H476          H  0.0581500  0.4651100  0.2506100    0.00000       Uiso       1.00
