data_CCOF-2
_audit_creation_date              0000-00-00
_audit_creation_method            'LanYouShi'
_symmetry_space_group_name_H-M    'P1'
_cell_length_a                    48.1440010
_cell_length_b                    48.0750008
_cell_length_c                    29.8460007
_cell_angle_alpha                 90.0000000
_cell_angle_beta                  90.2409973
_cell_angle_gamma                 90.0000000
loop_
_atom_site_label
_atom_site_type_symbol
_atom_site_fract_x
_atom_site_fract_y
_atom_site_fract_z
_atom_site_U_iso_or_equiv
_atom_site_adp_type
_atom_site_occupancy
        C1          C  0.1161900  0.1009300  0.3278800    0.00000       Uiso       1.00
        C2          C  0.2251300  0.5212600  0.1039200    0.00000       Uiso       1.00
        C3          C  0.3119200  0.8467200  0.3225300    0.00000       Uiso       1.00
        C4          C  0.2912200  0.8665301  0.3294000    0.00000       Uiso       1.00
        C5          C  0.2980500  0.8945000  0.3371500    0.00000       Uiso       1.00
        C6          C  0.3261400  0.9027600  0.3368900    0.00000       Uiso       1.00
        C7          C  0.3475300  0.8834000  0.3302700    0.00000       Uiso       1.00
        C8          C  0.3782200  0.6436200  0.2495300    0.00000       Uiso       1.00
        C9          C  0.3621800  0.6207000  0.2364800    0.00000       Uiso       1.00
       C10          C  0.3343000  0.6241000  0.2237100    0.00000       Uiso       1.00
       C11          C  0.3226500  0.6509200  0.2245100    0.00000       Uiso       1.00
       C12          C  0.3386900  0.6738500  0.2374500    0.00000       Uiso       1.00
       C13          C  0.5935000  0.8567200  0.2388000    0.00000       Uiso       1.00
       C14          C  0.6096500  0.8794900  0.2256700    0.00000       Uiso       1.00
       C15          C  0.5981100  0.9063400  0.2240400    0.00000       Uiso       1.00
       C16          C  0.5702000  0.9099300  0.2361700    0.00000       Uiso       1.00
       C17          C  0.5540500  0.8871800  0.2494200    0.00000       Uiso       1.00
       C18          C  0.5829300  0.6474700  0.3323700    0.00000       Uiso       1.00
       C19          C  0.6040100  0.6276900  0.3385000    0.00000       Uiso       1.00
       C20          C  0.6321000  0.6357200  0.3377100    0.00000       Uiso       1.00
       C21          C  0.6386500  0.6637100  0.3296200    0.00000       Uiso       1.00
       C22          C  0.6176400  0.6834400  0.3235600    0.00000       Uiso       1.00
       C23          C  0.2754200  0.9143800  0.3474600    0.00000       Uiso       1.00
       C24          C  0.6548700  0.6158600  0.3473500    0.00000       Uiso       1.00
       C25          C  0.8146600  0.4294800  0.3271400    0.00000       Uiso       1.00
       C26          C  0.9532600  0.2552800  0.2448000    0.00000       Uiso       1.00
       C27          C  0.9778500  0.2758000  0.2449900    0.00000       Uiso       1.00
       C28          C  0.9653600  0.2657700  0.3161200    0.00000       Uiso       1.00
       C29          C  0.9794000  0.2441200  0.3463000    0.00000       Uiso       1.00
       C30          C  0.9048800  0.2404200  0.2128200    0.00000       Uiso       1.00
       C31          C  0.9067400  0.2147500  0.2358100    0.00000       Uiso       1.00
       C32          C  0.8856700  0.1947700  0.2319300    0.00000       Uiso       1.00
       C33          C  0.8621500  0.1997200  0.2050900    0.00000       Uiso       1.00
       C34          C  0.8603000  0.2250400  0.1818600    0.00000       Uiso       1.00
       C35          C  0.8812900  0.2449700  0.1856000    0.00000       Uiso       1.00
       C36          C  0.9269200  0.2637300  0.2156300    0.00000       Uiso       1.00
       C37          C  0.7585700  0.0718800  0.1624400    0.00000       Uiso       1.00
       N38          N  0.7786700  0.0926300  0.1754100    0.00000       Uiso       1.00
       C39          C  0.9123900  0.2899000  0.2348800    0.00000       Uiso       1.00
       C40          C  0.8960900  0.2877500  0.2739900    0.00000       Uiso       1.00
       C41          C  0.8807400  0.3103800  0.2898900    0.00000       Uiso       1.00
       C42          C  0.8811000  0.3359600  0.2672300    0.00000       Uiso       1.00
       C43          C  0.8975400  0.3384700  0.2287200    0.00000       Uiso       1.00
       C44          C  0.9128000  0.3158500  0.2126400    0.00000       Uiso       1.00
       C45          C  0.9510301  0.2877900  0.3450400    0.00000       Uiso       1.00
       N46          N  0.7895800  0.4263000  0.3424100    0.00000       Uiso       1.00
       C47          C  0.7718400  0.4476200  0.3606000    0.00000       Uiso       1.00
       C48          C  0.0264800  0.2903800  0.2143100    0.00000       Uiso       1.00
       C49          C  0.0503200  0.2855700  0.1881100    0.00000       Uiso       1.00
       C50          C  0.0715100  0.3053200  0.1851000    0.00000       Uiso       1.00
       C51          C  0.0695600  0.3307500  0.2079200    0.00000       Uiso       1.00
       C52          C  0.0457700  0.3360000  0.2336800    0.00000       Uiso       1.00
       C53          C  0.0245400  0.3161800  0.2369100    0.00000       Uiso       1.00
       C54          C  0.0042600  0.2672300  0.2164400    0.00000       Uiso       1.00
       C55          C  0.1743800  0.4574800  0.1646600    0.00000       Uiso       1.00
       N56          N  0.1543200  0.4368400  0.1779800    0.00000       Uiso       1.00
       C57          C  0.0185100  0.2409100  0.2358700    0.00000       Uiso       1.00
       C58          C  0.0182200  0.2150800  0.2132300    0.00000       Uiso       1.00
       C59          C  0.0333100  0.1923500  0.2294900    0.00000       Uiso       1.00
       C60          C  0.0494900  0.1946100  0.2685400    0.00000       Uiso       1.00
       C61          C  0.0497100  0.2200700  0.2916000    0.00000       Uiso       1.00
       C62          C  0.0345100  0.2428100  0.2755400    0.00000       Uiso       1.00
       N63          N  0.1412300  0.1041300  0.3436700    0.00000       Uiso       1.00
       C64          C  0.1591300  0.0827900  0.3616800    0.00000       Uiso       1.00
       O65          O  0.9453501  0.2521800  0.2895000    0.00000       Uiso       1.00
       O66          O  0.9962800  0.2629600  0.1714000    0.00000       Uiso       1.00
       O67          O  0.9856400  0.2789900  0.2898300    0.00000       Uiso       1.00
       O68          O  0.9350400  0.2681700  0.1708100    0.00000       Uiso       1.00
       C69          C  0.7335801  0.0787400  0.1402600    0.00000       Uiso       1.00
       C70          C  0.7163000  0.0578000  0.1233500    0.00000       Uiso       1.00
       C71          C  0.7236100  0.0296800  0.1280300    0.00000       Uiso       1.00
       C72          C  0.7479801  0.0227900  0.1514900    0.00000       Uiso       1.00
       C73          C  0.7653400  0.0437500  0.1683200    0.00000       Uiso       1.00
       C74          C  0.1993100  0.4504500  0.1427900    0.00000       Uiso       1.00
       C75          C  0.2165200  0.4712300  0.1254600    0.00000       Uiso       1.00
       C76          C  0.2092100  0.4993800  0.1294200    0.00000       Uiso       1.00
       C77          C  0.1849100  0.5064700  0.1525900    0.00000       Uiso       1.00
       C78          C  0.1676200  0.4856700  0.1698500    0.00000       Uiso       1.00
       C79          C  0.1832000  0.0911500  0.3845100    0.00000       Uiso       1.00
       C80          C  0.2001300  0.0716500  0.4061500    0.00000       Uiso       1.00
       C81          C  0.1934100  0.0432500  0.4050200    0.00000       Uiso       1.00
       C82          C  0.1701000  0.0345900  0.3802700    0.00000       Uiso       1.00
       C83          C  0.1530800  0.0541300  0.3586700    0.00000       Uiso       1.00
       C84          C  0.7478800  0.4392700  0.3834100    0.00000       Uiso       1.00
       C85          C  0.7310800  0.4587600  0.4051000    0.00000       Uiso       1.00
       C86          C  0.7378300  0.4871600  0.4040200    0.00000       Uiso       1.00
       C87          C  0.7610199  0.4958200  0.3793200    0.00000       Uiso       1.00
       C88          C  0.7779099  0.4762800  0.3576800    0.00000       Uiso       1.00
       C89          C  0.7224300  0.5075300  0.4332800    0.00000       Uiso       1.00
       C90          C  0.8396000  0.1786200  0.2010700    0.00000       Uiso       1.00
       C91          C  0.8639400  0.3598200  0.2829500    0.00000       Uiso       1.00
       C92          C  0.0923300  0.3515900  0.2045800    0.00000       Uiso       1.00
       C93          C  0.0666400  0.1707100  0.2843100    0.00000       Uiso       1.00
       C94          C  0.3180600  0.5996600  0.2085300    0.00000       Uiso       1.00
       C95          C  0.1217000  0.3425300  0.2027000    0.00000       Uiso       1.00
       C96          C  0.1426600  0.3621500  0.1965800    0.00000       Uiso       1.00
       C97          C  0.1363000  0.3905400  0.1925600    0.00000       Uiso       1.00
       C98          C  0.1084500  0.3993300  0.1955500    0.00000       Uiso       1.00
       C99          C  0.0868200  0.3801900  0.2014900    0.00000       Uiso       1.00
      C100          C  0.0562400  0.1434000  0.2822700    0.00000       Uiso       1.00
      C101          C  0.0725400  0.1208900  0.2962800    0.00000       Uiso       1.00
      C102          C  0.0996200  0.1251200  0.3125100    0.00000       Uiso       1.00
      C103          C  0.1101000  0.1524000  0.3145600    0.00000       Uiso       1.00
      C104          C  0.0937700  0.1749300  0.3006700    0.00000       Uiso       1.00
      C105          C  0.8367300  0.3556000  0.2985700    0.00000       Uiso       1.00
      C106          C  0.8204600  0.3781000  0.3126100    0.00000       Uiso       1.00
      C107          C  0.8311000  0.4053300  0.3114400    0.00000       Uiso       1.00
      C108          C  0.8582399  0.4095600  0.2958400    0.00000       Uiso       1.00
      C109          C  0.8744600  0.3871000  0.2817000    0.00000       Uiso       1.00
      C110          C  0.8458100  0.1500900  0.1975600    0.00000       Uiso       1.00
      C111          C  0.8245600  0.1304700  0.1918100    0.00000       Uiso       1.00
      C112          C  0.7966400  0.1389900  0.1895800    0.00000       Uiso       1.00
      C113          C  0.7904099  0.1673600  0.1940200    0.00000       Uiso       1.00
      C114          C  0.8116000  0.1869400  0.1997000    0.00000       Uiso       1.00
      C115          C  0.1591000  0.4104000  0.1833400    0.00000       Uiso       1.00
      C116          C  0.7738300  0.1190500  0.1806500    0.00000       Uiso       1.00
      C117          C  0.4775800  0.7549800  0.2817800    0.00000       Uiso       1.00
      C118          C  0.4539000  0.7764600  0.2817200    0.00000       Uiso       1.00
      C119          C  0.4658400  0.7660000  0.2106700    0.00000       Uiso       1.00
      C120          C  0.4513800  0.7446200  0.1805200    0.00000       Uiso       1.00
      C121          C  0.5251800  0.7386200  0.3150100    0.00000       Uiso       1.00
      C122          C  0.5221000  0.7124500  0.2938300    0.00000       Uiso       1.00
      C123          C  0.5428100  0.6920499  0.2973700    0.00000       Uiso       1.00
      C124          C  0.5672800  0.6971200  0.3218200    0.00000       Uiso       1.00
      C125          C  0.5704600  0.7229900  0.3429900    0.00000       Uiso       1.00
      C126          C  0.5498400  0.7433000  0.3396600    0.00000       Uiso       1.00
      C127          C  0.5034100  0.7623800  0.3120000    0.00000       Uiso       1.00
      C128          C  0.6702500  0.5695600  0.3701500    0.00000       Uiso       1.00
      N129          N  0.6499200  0.5898000  0.3560100    0.00000       Uiso       1.00
      C130          C  0.5178700  0.7888001  0.2939900    0.00000       Uiso       1.00
      C131          C  0.5357800  0.7871300  0.2568200    0.00000       Uiso       1.00
      C132          C  0.5508400  0.8103100  0.2424600    0.00000       Uiso       1.00
      C133          C  0.5483500  0.8359600  0.2646000    0.00000       Uiso       1.00
      C134          C  0.5297800  0.8380601  0.3006400    0.00000       Uiso       1.00
      C135          C  0.5147700  0.8148500  0.3151600    0.00000       Uiso       1.00
      C136          C  0.4805300  0.7878100  0.1818100    0.00000       Uiso       1.00
      N137          N  0.6401100  0.9277000  0.1958100    0.00000       Uiso       1.00
      C138          C  0.6579500  0.9489000  0.1775900    0.00000       Uiso       1.00
      C139          C  0.4061400  0.7925600  0.3140900    0.00000       Uiso       1.00
      C140          C  0.3813500  0.7876300  0.3379400    0.00000       Uiso       1.00
      C141          C  0.3606200  0.8078399  0.3409600    0.00000       Uiso       1.00
      C142          C  0.3638700  0.8338600  0.3204100    0.00000       Uiso       1.00
      C143          C  0.3884600  0.8391800  0.2967500    0.00000       Uiso       1.00
      C144          C  0.4092500  0.8188700  0.2934200    0.00000       Uiso       1.00
      C145          C  0.4280800  0.7689500  0.3115300    0.00000       Uiso       1.00
      C146          C  0.2604700  0.9606700  0.3709100    0.00000       Uiso       1.00
      N147          N  0.2805400  0.9403901  0.3562600    0.00000       Uiso       1.00
      C148          C  0.4138400  0.7423800  0.2934400    0.00000       Uiso       1.00
      C149          C  0.4169400  0.7164500  0.3150200    0.00000       Uiso       1.00
      C150          C  0.4021000  0.6931100  0.3004300    0.00000       Uiso       1.00
      C151          C  0.3836600  0.6949500  0.2639400    0.00000       Uiso       1.00
      C152          C  0.3811100  0.7205000  0.2414500    0.00000       Uiso       1.00
      C153          C  0.3960500  0.7438100  0.2558500    0.00000       Uiso       1.00
      N154          N  0.2924100  0.6023500  0.1953200    0.00000       Uiso       1.00
      C155          C  0.2746500  0.5809100  0.1773600    0.00000       Uiso       1.00
      O156          O  0.4857500  0.7520700  0.2372000    0.00000       Uiso       1.00
      O157          O  0.4383500  0.7645500  0.3553300    0.00000       Uiso       1.00
      O158          O  0.4457300  0.7795100  0.2370600    0.00000       Uiso       1.00
      O159          O  0.4931300  0.7669300  0.3556000    0.00000       Uiso       1.00
      C160          C  0.6954700  0.5772600  0.3908900    0.00000       Uiso       1.00
      C161          C  0.7130700  0.5570100  0.4090800    0.00000       Uiso       1.00
      C162          C  0.7059000  0.5287400  0.4070500    0.00000       Uiso       1.00
      C163          C  0.6812899  0.5209600  0.3850100    0.00000       Uiso       1.00
      C164          C  0.6635700  0.5412400  0.3670000    0.00000       Uiso       1.00
      C165          C  0.2354400  0.9530300  0.3919300    0.00000       Uiso       1.00
      C166          C  0.2180500  0.9733300  0.4103000    0.00000       Uiso       1.00
      C167          C  0.2252800  0.0015900  0.4082100    0.00000       Uiso       1.00
      C168          C  0.2497700  0.0092900  0.3860900    0.00000       Uiso       1.00
      C169          C  0.2672500  0.9889699  0.3678500    0.00000       Uiso       1.00
      C170          C  0.2499200  0.5890800  0.1562700    0.00000       Uiso       1.00
      C171          C  0.2330800  0.5695900  0.1344900    0.00000       Uiso       1.00
      C172          C  0.2405600  0.5413800  0.1337900    0.00000       Uiso       1.00
      C173          C  0.2645100  0.5328300  0.1570000    0.00000       Uiso       1.00
      C174          C  0.2814600  0.5523800  0.1786800    0.00000       Uiso       1.00
      C175          C  0.6826900  0.9404500  0.1571600    0.00000       Uiso       1.00
      C176          C  0.6995700  0.9596400  0.1350100    0.00000       Uiso       1.00
      C177          C  0.6921400  0.9878500  0.1332800    0.00000       Uiso       1.00
      C178          C  0.6682000  0.9967200  0.1558700    0.00000       Uiso       1.00
      C179          C  0.6512000  0.9774600  0.1779300    0.00000       Uiso       1.00
      C180          C  0.7076200  0.0075600  0.1030000    0.00000       Uiso       1.00
      C181          C  0.2089300  0.0228700  0.4343400    0.00000       Uiso       1.00
      C182          C  0.5895100  0.6756700  0.3254900    0.00000       Uiso       1.00
      C183          C  0.5654600  0.8602601  0.2506700    0.00000       Uiso       1.00
      C184          C  0.3415000  0.8551300  0.3237900    0.00000       Uiso       1.00
      C185          C  0.3667000  0.6705100  0.2499900    0.00000       Uiso       1.00
      C186          C  0.6144700  0.9306000  0.2086100    0.00000       Uiso       1.00
      H187          H  0.1064800  0.0806700  0.3272400    0.00000       Uiso       1.00
      H188          H  0.2404200  0.5114200  0.0810300    0.00000       Uiso       1.00
      H189          H  0.2102400  0.5325400  0.0818700    0.00000       Uiso       1.00
      H190          H  0.3061200  0.8253099  0.3163200    0.00000       Uiso       1.00
      H191          H  0.2697100  0.8598999  0.3291500    0.00000       Uiso       1.00
      H192          H  0.3316800  0.9242700  0.3428500    0.00000       Uiso       1.00
      H193          H  0.3688500  0.8904900  0.3317900    0.00000       Uiso       1.00
      H194          H  0.3997700  0.6403600  0.2585800    0.00000       Uiso       1.00
      H195          H  0.3716800  0.6002700  0.2360300    0.00000       Uiso       1.00
      H196          H  0.3011900  0.6542400  0.2149700    0.00000       Uiso       1.00
      H197          H  0.3290500  0.6941900  0.2381300    0.00000       Uiso       1.00
      H198          H  0.6030500  0.8363500  0.2401000    0.00000       Uiso       1.00
      H199          H  0.6311200  0.8760000  0.2166000    0.00000       Uiso       1.00
      H200          H  0.5607700  0.9303800  0.2350100    0.00000       Uiso       1.00
      H201          H  0.5324800  0.8905900  0.2579500    0.00000       Uiso       1.00
      H202          H  0.5614800  0.6408400  0.3343700    0.00000       Uiso       1.00
      H203          H  0.5982900  0.6062600  0.3447700    0.00000       Uiso       1.00
      H204          H  0.6601100  0.6704400  0.3286700    0.00000       Uiso       1.00
      H205          H  0.6234500  0.7048699  0.3175200    0.00000       Uiso       1.00
      H206          H  0.2543700  0.9065201  0.3485100    0.00000       Uiso       1.00
      H207          H  0.6759100  0.6237700  0.3480500    0.00000       Uiso       1.00
      H208          H  0.8245300  0.4496700  0.3272500    0.00000       Uiso       1.00
      H209          H  0.9608899  0.2347500  0.2330800    0.00000       Uiso       1.00
      H210          H  0.9702600  0.2963100  0.2330100    0.00000       Uiso       1.00
      H211          H  0.9882400  0.2271200  0.3256300    0.00000       Uiso       1.00
      H212          H  0.9640700  0.2348000  0.3696200    0.00000       Uiso       1.00
      H213          H  0.9964200  0.2538200  0.3661400    0.00000       Uiso       1.00
      H214          H  0.9241400  0.2096600  0.2571700    0.00000       Uiso       1.00
      H215          H  0.8876300  0.1755400  0.2505500    0.00000       Uiso       1.00
      H216          H  0.8427199  0.2293700  0.1602200    0.00000       Uiso       1.00
      H217          H  0.8790900  0.2642500  0.1671300    0.00000       Uiso       1.00
      H218          H  0.8946900  0.2682300  0.2919000    0.00000       Uiso       1.00
      H219          H  0.8685099  0.3078000  0.3199700    0.00000       Uiso       1.00
      H220          H  0.8979700  0.3577800  0.2100700    0.00000       Uiso       1.00
      H221          H  0.9243200  0.3190600  0.1821500    0.00000       Uiso       1.00
      H222          H  0.9337299  0.2783800  0.3643500    0.00000       Uiso       1.00
      H223          H  0.9425300  0.3046100  0.3234900    0.00000       Uiso       1.00
      H224          H  0.9661100  0.2973200  0.3687900    0.00000       Uiso       1.00
      H225          H  0.0525900  0.2662100  0.1699300    0.00000       Uiso       1.00
      H226          H  0.0893100  0.3007600  0.1643100    0.00000       Uiso       1.00
      H227          H  0.0437400  0.3553200  0.2520200    0.00000       Uiso       1.00
      H228          H  0.0069300  0.3214800  0.2574400    0.00000       Uiso       1.00
      H229          H  0.0069700  0.2120800  0.1822700    0.00000       Uiso       1.00
      H230          H  0.0330100  0.1731500  0.2105200    0.00000       Uiso       1.00
      H231          H  0.0617500  0.2224700  0.3220700    0.00000       Uiso       1.00
      H232          H  0.0358600  0.2622400  0.2937200    0.00000       Uiso       1.00
      H233          H  0.9821100  0.2481200  0.1698000    0.00000       Uiso       1.00
      H234          H  0.9491500  0.2830700  0.1696100    0.00000       Uiso       1.00
      H235          H  0.7278700  0.1001000  0.1338300    0.00000       Uiso       1.00
      H236          H  0.6977700  0.0636300  0.1049200    0.00000       Uiso       1.00
      H237          H  0.7541800  0.0012400  0.1549800    0.00000       Uiso       1.00
      H238          H  0.7846000  0.0380700  0.1848200    0.00000       Uiso       1.00
      H239          H  0.2050600  0.4290400  0.1369100    0.00000       Uiso       1.00
      H240          H  0.2349900  0.4652300  0.1072600    0.00000       Uiso       1.00
      H241          H  0.1787200  0.5280500  0.1555300    0.00000       Uiso       1.00
      H242          H  0.1484200  0.4914900  0.1861300    0.00000       Uiso       1.00
      H243          H  0.1883300  0.1130400  0.3868900    0.00000       Uiso       1.00
      H244          H  0.2179800  0.0788700  0.4250500    0.00000       Uiso       1.00
      H245          H  0.1645400  0.0127700  0.3790400    0.00000       Uiso       1.00
      H246          H  0.1351700  0.0465800  0.3405100    0.00000       Uiso       1.00
      H247          H  0.7427300  0.4173800  0.3857100    0.00000       Uiso       1.00
      H248          H  0.7133100  0.4515500  0.4239500    0.00000       Uiso       1.00
      H249          H  0.7665800  0.5176300  0.3781200    0.00000       Uiso       1.00
      H250          H  0.7957200  0.4838300  0.3394800    0.00000       Uiso       1.00
      H251          H  0.7378200  0.5180000  0.4554700    0.00000       Uiso       1.00
      H252          H  0.7079700  0.4964100  0.4560600    0.00000       Uiso       1.00
      H253          H  0.3285000  0.5797900  0.2066200    0.00000       Uiso       1.00
      H254          H  0.1271600  0.3207900  0.2061500    0.00000       Uiso       1.00
      H255          H  0.1639900  0.3551000  0.1945400    0.00000       Uiso       1.00
      H256          H  0.1032700  0.4211600  0.1923800    0.00000       Uiso       1.00
      H257          H  0.0656600  0.3877900  0.2022400    0.00000       Uiso       1.00
      H258          H  0.0353500  0.1394400  0.2703200    0.00000       Uiso       1.00
      H259          H  0.0639100  0.1001100  0.2945700    0.00000       Uiso       1.00
      H260          H  0.1309000  0.1563600  0.3269300    0.00000       Uiso       1.00
      H261          H  0.1025500  0.1956500  0.3020600    0.00000       Uiso       1.00
      H262          H  0.8278400  0.3349100  0.2993100    0.00000       Uiso       1.00
      H263          H  0.7996000  0.3741400  0.3244200    0.00000       Uiso       1.00
      H264          H  0.8669800  0.4303100  0.2947600    0.00000       Uiso       1.00
      H265          H  0.8954100  0.3910500  0.2702900    0.00000       Uiso       1.00
      H266          H  0.8671500  0.1430000  0.1980400    0.00000       Uiso       1.00
      H267          H  0.8300500  0.1087400  0.1883300    0.00000       Uiso       1.00
      H268          H  0.7690700  0.1744600  0.1925200    0.00000       Uiso       1.00
      H269          H  0.8060400  0.2086600  0.2030500    0.00000       Uiso       1.00
      H270          H  0.1799200  0.4022000  0.1801100    0.00000       Uiso       1.00
      H271          H  0.7529500  0.1271600  0.1776000    0.00000       Uiso       1.00
      H272          H  0.4691100  0.7347600  0.2931600    0.00000       Uiso       1.00
      H273          H  0.4623700  0.7966600  0.2933800    0.00000       Uiso       1.00
      H274          H  0.4421300  0.7278599  0.2012700    0.00000       Uiso       1.00
      H275          H  0.4665200  0.7349600  0.1572300    0.00000       Uiso       1.00
      H276          H  0.4345700  0.7546600  0.1606700    0.00000       Uiso       1.00
      H277          H  0.5040000  0.7073300  0.2740600    0.00000       Uiso       1.00
      H278          H  0.5398600  0.6724100  0.2802500    0.00000       Uiso       1.00
      H279          H  0.5888900  0.7275000  0.3626000    0.00000       Uiso       1.00
      H280          H  0.5534500  0.7630600  0.3560800    0.00000       Uiso       1.00
      H281          H  0.5385900  0.7676100  0.2393300    0.00000       Uiso       1.00
      H282          H  0.5645200  0.8081100  0.2139700    0.00000       Uiso       1.00
      H283          H  0.5274000  0.8575200  0.3184900    0.00000       Uiso       1.00
      H284          H  0.5009300  0.8173800  0.3433300    0.00000       Uiso       1.00
      H285          H  0.4655200  0.7979600  0.1586300    0.00000       Uiso       1.00
      H286          H  0.4973600  0.7780300  0.1618800    0.00000       Uiso       1.00
      H287          H  0.4897900  0.8041600  0.2034900    0.00000       Uiso       1.00
      H288          H  0.3777500  0.7677699  0.3539800    0.00000       Uiso       1.00
      H289          H  0.3420900  0.8031200  0.3599300    0.00000       Uiso       1.00
      H290          H  0.3914500  0.8589400  0.2800500    0.00000       Uiso       1.00
      H291          H  0.4274500  0.8241701  0.2742700    0.00000       Uiso       1.00
      H292          H  0.4306500  0.7141200  0.3435900    0.00000       Uiso       1.00
      H293          H  0.4044800  0.6737500  0.3185900    0.00000       Uiso       1.00
      H294          H  0.3674700  0.7225200  0.2127000    0.00000       Uiso       1.00
      H295          H  0.3931700  0.7632400  0.2381100    0.00000       Uiso       1.00
      H296          H  0.4228300  0.7591300  0.3752700    0.00000       Uiso       1.00
      H297          H  0.5086000  0.7725500  0.3756900    0.00000       Uiso       1.00
      H298          H  0.7011200  0.5988500  0.3952200    0.00000       Uiso       1.00
      H299          H  0.7317901  0.5635500  0.4263600    0.00000       Uiso       1.00
      H300          H  0.6752300  0.4992800  0.3835100    0.00000       Uiso       1.00
      H301          H  0.6441600  0.5349100  0.3516200    0.00000       Uiso       1.00
      H302          H  0.2297600  0.9314600  0.3962800    0.00000       Uiso       1.00
      H303          H  0.1994400  0.9668499  0.4276900    0.00000       Uiso       1.00
      H304          H  0.2559200  0.0309500  0.3846400    0.00000       Uiso       1.00
      H305          H  0.2865500  0.9952399  0.3523100    0.00000       Uiso       1.00
      H306          H  0.2442300  0.6108700  0.1552500    0.00000       Uiso       1.00
      H307          H  0.2147100  0.5767100  0.1168300    0.00000       Uiso       1.00
      H308          H  0.2706100  0.5111500  0.1568400    0.00000       Uiso       1.00
      H309          H  0.2999200  0.5450000  0.1955800    0.00000       Uiso       1.00
      H310          H  0.6883501  0.9186400  0.1569100    0.00000       Uiso       1.00
      H311          H  0.7179499  0.9522900  0.1178700    0.00000       Uiso       1.00
      H312          H  0.6621400  0.0184100  0.1549400    0.00000       Uiso       1.00
      H313          H  0.6327400  0.9850800  0.1943100    0.00000       Uiso       1.00
      H314          H  0.6923700  0.0171800  0.0795900    0.00000       Uiso       1.00
      H315          H  0.7224700  0.9959800  0.0814900    0.00000       Uiso       1.00
      H316          H  0.2235300  0.0339700  0.4571200    0.00000       Uiso       1.00
      H317          H  0.1936300  0.0124500  0.4565300    0.00000       Uiso       1.00
      H318          H  0.6041000  0.9504901  0.2061500    0.00000       Uiso       1.00
      C319          C  0.8838099  0.6009300  0.6721200    0.00000       Uiso       1.00
      C320          C  0.7748700  0.0212600  0.8960800    0.00000       Uiso       1.00
      C321          C  0.6880800  0.3467200  0.6774700    0.00000       Uiso       1.00
      C322          C  0.7087800  0.3665300  0.6706000    0.00000       Uiso       1.00
      C323          C  0.7019500  0.3945000  0.6628500    0.00000       Uiso       1.00
      C324          C  0.6738601  0.4027600  0.6631100    0.00000       Uiso       1.00
      C325          C  0.6524700  0.3834000  0.6697299    0.00000       Uiso       1.00
      C326          C  0.6217800  0.1436200  0.7504700    0.00000       Uiso       1.00
      C327          C  0.6378200  0.1207000  0.7635200    0.00000       Uiso       1.00
      C328          C  0.6657000  0.1241000  0.7762900    0.00000       Uiso       1.00
      C329          C  0.6773500  0.1509200  0.7754900    0.00000       Uiso       1.00
      C330          C  0.6613100  0.1738500  0.7625500    0.00000       Uiso       1.00
      C331          C  0.4065000  0.3567200  0.7612000    0.00000       Uiso       1.00
      C332          C  0.3903500  0.3794900  0.7743300    0.00000       Uiso       1.00
      C333          C  0.4018900  0.4063400  0.7759601    0.00000       Uiso       1.00
      C334          C  0.4298000  0.4099300  0.7638300    0.00000       Uiso       1.00
      C335          C  0.4459500  0.3871800  0.7505800    0.00000       Uiso       1.00
      C336          C  0.4170700  0.1474700  0.6676300    0.00000       Uiso       1.00
      C337          C  0.3959900  0.1276900  0.6615000    0.00000       Uiso       1.00
      C338          C  0.3679000  0.1357200  0.6622900    0.00000       Uiso       1.00
      C339          C  0.3613500  0.1637100  0.6703800    0.00000       Uiso       1.00
      C340          C  0.3823600  0.1834400  0.6764400    0.00000       Uiso       1.00
      C341          C  0.7245800  0.4143800  0.6525400    0.00000       Uiso       1.00
      C342          C  0.3451300  0.1158600  0.6526500    0.00000       Uiso       1.00
      C343          C  0.1853400  0.9294800  0.6728600    0.00000       Uiso       1.00
      C344          C  0.0467400  0.7552801  0.7552000    0.00000       Uiso       1.00
      C345          C  0.0221500  0.7758000  0.7550100    0.00000       Uiso       1.00
      C346          C  0.0346400  0.7657701  0.6838800    0.00000       Uiso       1.00
      C347          C  0.0206000  0.7441200  0.6537000    0.00000       Uiso       1.00
      C348          C  0.0951200  0.7404200  0.7871800    0.00000       Uiso       1.00
      C349          C  0.0932600  0.7147500  0.7641900    0.00000       Uiso       1.00
      C350          C  0.1143300  0.6947700  0.7680700    0.00000       Uiso       1.00
      C351          C  0.1378500  0.6997200  0.7949100    0.00000       Uiso       1.00
      C352          C  0.1397000  0.7250400  0.8181400    0.00000       Uiso       1.00
      C353          C  0.1187100  0.7449700  0.8144000    0.00000       Uiso       1.00
      C354          C  0.0730800  0.7637300  0.7843700    0.00000       Uiso       1.00
      C355          C  0.2414300  0.5718800  0.8375600    0.00000       Uiso       1.00
      N356          N  0.2213300  0.5926300  0.8245900    0.00000       Uiso       1.00
      C357          C  0.0876100  0.7898999  0.7651200    0.00000       Uiso       1.00
      C358          C  0.1039100  0.7877500  0.7260100    0.00000       Uiso       1.00
      C359          C  0.1192600  0.8103800  0.7101100    0.00000       Uiso       1.00
      C360          C  0.1189000  0.8359600  0.7327700    0.00000       Uiso       1.00
      C361          C  0.1024600  0.8384700  0.7712800    0.00000       Uiso       1.00
      C362          C  0.0872000  0.8158500  0.7873600    0.00000       Uiso       1.00
      C363          C  0.0489700  0.7877900  0.6549600    0.00000       Uiso       1.00
      N364          N  0.2104200  0.9263000  0.6575900    0.00000       Uiso       1.00
      C365          C  0.2281600  0.9476200  0.6394000    0.00000       Uiso       1.00
      C366          C  0.9735199  0.7903800  0.7856900    0.00000       Uiso       1.00
      C367          C  0.9496800  0.7855701  0.8118900    0.00000       Uiso       1.00
      C368          C  0.9284900  0.8053200  0.8149000    0.00000       Uiso       1.00
      C369          C  0.9304399  0.8307500  0.7920800    0.00000       Uiso       1.00
      C370          C  0.9542300  0.8360000  0.7663199    0.00000       Uiso       1.00
      C371          C  0.9754599  0.8161800  0.7630900    0.00000       Uiso       1.00
      C372          C  0.9957400  0.7672300  0.7835600    0.00000       Uiso       1.00
      C373          C  0.8256200  0.9574800  0.8353401    0.00000       Uiso       1.00
      N374          N  0.8456800  0.9368399  0.8220200    0.00000       Uiso       1.00
      C375          C  0.9814900  0.7409100  0.7641300    0.00000       Uiso       1.00
      C376          C  0.9817800  0.7150800  0.7867700    0.00000       Uiso       1.00
      C377          C  0.9666900  0.6923500  0.7705100    0.00000       Uiso       1.00
      C378          C  0.9505100  0.6946100  0.7314600    0.00000       Uiso       1.00
      C379          C  0.9502901  0.7200700  0.7084000    0.00000       Uiso       1.00
      C380          C  0.9654900  0.7428100  0.7244600    0.00000       Uiso       1.00
      N381          N  0.8587700  0.6041300  0.6563300    0.00000       Uiso       1.00
      C382          C  0.8408700  0.5827900  0.6383200    0.00000       Uiso       1.00
      O383          O  0.0546500  0.7521800  0.7105000    0.00000       Uiso       1.00
      O384          O  0.0037200  0.7629600  0.8286000    0.00000       Uiso       1.00
      O385          O  0.0143600  0.7789900  0.7101700    0.00000       Uiso       1.00
      O386          O  0.0649600  0.7681699  0.8291900    0.00000       Uiso       1.00
      C387          C  0.2664200  0.5787400  0.8597400    0.00000       Uiso       1.00
      C388          C  0.2837000  0.5578000  0.8766500    0.00000       Uiso       1.00
      C389          C  0.2763900  0.5296800  0.8719700    0.00000       Uiso       1.00
      C390          C  0.2520200  0.5227900  0.8485100    0.00000       Uiso       1.00
      C391          C  0.2346600  0.5437500  0.8316800    0.00000       Uiso       1.00
      C392          C  0.8006900  0.9504501  0.8572100    0.00000       Uiso       1.00
      C393          C  0.7834800  0.9712300  0.8745400    0.00000       Uiso       1.00
      C394          C  0.7907900  0.9993800  0.8705800    0.00000       Uiso       1.00
      C395          C  0.8150900  0.0064700  0.8474100    0.00000       Uiso       1.00
      C396          C  0.8323799  0.9856700  0.8301500    0.00000       Uiso       1.00
      C397          C  0.8168000  0.5911500  0.6154900    0.00000       Uiso       1.00
      C398          C  0.7998700  0.5716500  0.5938500    0.00000       Uiso       1.00
      C399          C  0.8065900  0.5432500  0.5949800    0.00000       Uiso       1.00
      C400          C  0.8299000  0.5345900  0.6197300    0.00000       Uiso       1.00
      C401          C  0.8469200  0.5541300  0.6413300    0.00000       Uiso       1.00
      C402          C  0.2521200  0.9392700  0.6165900    0.00000       Uiso       1.00
      C403          C  0.2689200  0.9587600  0.5949000    0.00000       Uiso       1.00
      C404          C  0.2621700  0.9871600  0.5959800    0.00000       Uiso       1.00
      C405          C  0.2389800  0.9958200  0.6206800    0.00000       Uiso       1.00
      C406          C  0.2220900  0.9762800  0.6423200    0.00000       Uiso       1.00
      C407          C  0.2775700  0.0075300  0.5667200    0.00000       Uiso       1.00
      C408          C  0.1604000  0.6786200  0.7989300    0.00000       Uiso       1.00
      C409          C  0.1360600  0.8598199  0.7170500    0.00000       Uiso       1.00
      C410          C  0.9076700  0.8515900  0.7954200    0.00000       Uiso       1.00
      C411          C  0.9333600  0.6707100  0.7156900    0.00000       Uiso       1.00
      C412          C  0.6819400  0.0996600  0.7914700    0.00000       Uiso       1.00
      C413          C  0.8783000  0.8425300  0.7973000    0.00000       Uiso       1.00
      C414          C  0.8573399  0.8621500  0.8034200    0.00000       Uiso       1.00
      C415          C  0.8637000  0.8905399  0.8074400    0.00000       Uiso       1.00
      C416          C  0.8915500  0.8993300  0.8044500    0.00000       Uiso       1.00
      C417          C  0.9131800  0.8801900  0.7985100    0.00000       Uiso       1.00
      C418          C  0.9437600  0.6434000  0.7177300    0.00000       Uiso       1.00
      C419          C  0.9274600  0.6208900  0.7037200    0.00000       Uiso       1.00
      C420          C  0.9003800  0.6251200  0.6874900    0.00000       Uiso       1.00
      C421          C  0.8899000  0.6524000  0.6854400    0.00000       Uiso       1.00
      C422          C  0.9062300  0.6749300  0.6993300    0.00000       Uiso       1.00
      C423          C  0.1632700  0.8555999  0.7014300    0.00000       Uiso       1.00
      C424          C  0.1795400  0.8781000  0.6873900    0.00000       Uiso       1.00
      C425          C  0.1689000  0.9053299  0.6885600    0.00000       Uiso       1.00
      C426          C  0.1417600  0.9095601  0.7041600    0.00000       Uiso       1.00
      C427          C  0.1255400  0.8871000  0.7183000    0.00000       Uiso       1.00
      C428          C  0.1541900  0.6500900  0.8024400    0.00000       Uiso       1.00
      C429          C  0.1754400  0.6304700  0.8081900    0.00000       Uiso       1.00
      C430          C  0.2033600  0.6389900  0.8104200    0.00000       Uiso       1.00
      C431          C  0.2095900  0.6673600  0.8059800    0.00000       Uiso       1.00
      C432          C  0.1884000  0.6869400  0.8003000    0.00000       Uiso       1.00
      C433          C  0.8408999  0.9104000  0.8166600    0.00000       Uiso       1.00
      C434          C  0.2261700  0.6190500  0.8193501    0.00000       Uiso       1.00
      C435          C  0.5224200  0.2549800  0.7182200    0.00000       Uiso       1.00
      C436          C  0.5461000  0.2764600  0.7182800    0.00000       Uiso       1.00
      C437          C  0.5341600  0.2660000  0.7893300    0.00000       Uiso       1.00
      C438          C  0.5486200  0.2446200  0.8194800    0.00000       Uiso       1.00
      C439          C  0.4748200  0.2386200  0.6849900    0.00000       Uiso       1.00
      C440          C  0.4779000  0.2124500  0.7061700    0.00000       Uiso       1.00
      C441          C  0.4571900  0.1920500  0.7026300    0.00000       Uiso       1.00
      C442          C  0.4327200  0.1971200  0.6781800    0.00000       Uiso       1.00
      C443          C  0.4295400  0.2229900  0.6570100    0.00000       Uiso       1.00
      C444          C  0.4501600  0.2433000  0.6603400    0.00000       Uiso       1.00
      C445          C  0.4965900  0.2623800  0.6880000    0.00000       Uiso       1.00
      C446          C  0.3297500  0.0695600  0.6298500    0.00000       Uiso       1.00
      N447          N  0.3500800  0.0898000  0.6439900    0.00000       Uiso       1.00
      C448          C  0.4821300  0.2888000  0.7060100    0.00000       Uiso       1.00
      C449          C  0.4642200  0.2871300  0.7431800    0.00000       Uiso       1.00
      C450          C  0.4491600  0.3103100  0.7575400    0.00000       Uiso       1.00
      C451          C  0.4516500  0.3359600  0.7354000    0.00000       Uiso       1.00
      C452          C  0.4702200  0.3380600  0.6993600    0.00000       Uiso       1.00
      C453          C  0.4852300  0.3148500  0.6848400    0.00000       Uiso       1.00
      C454          C  0.5194700  0.2878100  0.8181900    0.00000       Uiso       1.00
      N455          N  0.3598900  0.4277000  0.8041900    0.00000       Uiso       1.00
      C456          C  0.3420500  0.4489000  0.8224100    0.00000       Uiso       1.00
      C457          C  0.5938600  0.2925600  0.6859100    0.00000       Uiso       1.00
      C458          C  0.6186500  0.2876300  0.6620600    0.00000       Uiso       1.00
      C459          C  0.6393800  0.3078400  0.6590400    0.00000       Uiso       1.00
      C460          C  0.6361300  0.3338600  0.6795900    0.00000       Uiso       1.00
      C461          C  0.6115400  0.3391800  0.7032500    0.00000       Uiso       1.00
      C462          C  0.5907500  0.3188700  0.7065800    0.00000       Uiso       1.00
      C463          C  0.5719200  0.2689500  0.6884701    0.00000       Uiso       1.00
      C464          C  0.7395300  0.4606700  0.6290901    0.00000       Uiso       1.00
      N465          N  0.7194600  0.4403900  0.6437400    0.00000       Uiso       1.00
      C466          C  0.5861600  0.2423800  0.7065600    0.00000       Uiso       1.00
      C467          C  0.5830600  0.2164500  0.6849800    0.00000       Uiso       1.00
      C468          C  0.5979000  0.1931100  0.6995700    0.00000       Uiso       1.00
      C469          C  0.6163400  0.1949500  0.7360600    0.00000       Uiso       1.00
      C470          C  0.6188900  0.2205000  0.7585500    0.00000       Uiso       1.00
      C471          C  0.6039500  0.2438100  0.7441500    0.00000       Uiso       1.00
      N472          N  0.7075900  0.1023500  0.8046800    0.00000       Uiso       1.00
      C473          C  0.7253500  0.0809100  0.8226400    0.00000       Uiso       1.00
      O474          O  0.5142500  0.2520700  0.7628000    0.00000       Uiso       1.00
      O475          O  0.5616500  0.2645500  0.6446700    0.00000       Uiso       1.00
      O476          O  0.5542700  0.2795100  0.7629400    0.00000       Uiso       1.00
      O477          O  0.5068700  0.2669300  0.6444000    0.00000       Uiso       1.00
      C478          C  0.3045300  0.0772600  0.6091100    0.00000       Uiso       1.00
      C479          C  0.2869300  0.0570100  0.5909200    0.00000       Uiso       1.00
      C480          C  0.2941000  0.0287400  0.5929500    0.00000       Uiso       1.00
      C481          C  0.3187100  0.0209600  0.6149900    0.00000       Uiso       1.00
      C482          C  0.3364300  0.0412400  0.6330000    0.00000       Uiso       1.00
      C483          C  0.7645599  0.4530300  0.6080700    0.00000       Uiso       1.00
      C484          C  0.7819499  0.4733300  0.5897000    0.00000       Uiso       1.00
      C485          C  0.7747200  0.5015900  0.5917900    0.00000       Uiso       1.00
      C486          C  0.7502301  0.5092900  0.6139100    0.00000       Uiso       1.00
      C487          C  0.7327500  0.4889700  0.6321500    0.00000       Uiso       1.00
      C488          C  0.7500800  0.0890800  0.8437300    0.00000       Uiso       1.00
      C489          C  0.7669200  0.0695900  0.8655100    0.00000       Uiso       1.00
      C490          C  0.7594400  0.0413800  0.8662100    0.00000       Uiso       1.00
      C491          C  0.7354900  0.0328300  0.8430000    0.00000       Uiso       1.00
      C492          C  0.7185400  0.0523800  0.8213199    0.00000       Uiso       1.00
      C493          C  0.3173100  0.4404500  0.8428400    0.00000       Uiso       1.00
      C494          C  0.3004300  0.4596400  0.8649900    0.00000       Uiso       1.00
      C495          C  0.3078600  0.4878500  0.8667200    0.00000       Uiso       1.00
      C496          C  0.3318000  0.4967200  0.8441300    0.00000       Uiso       1.00
      C497          C  0.3488000  0.4774600  0.8220700    0.00000       Uiso       1.00
      C498          C  0.2923800  0.5075600  0.8970000    0.00000       Uiso       1.00
      C499          C  0.7910700  0.5228700  0.5656600    0.00000       Uiso       1.00
      C500          C  0.4104900  0.1756700  0.6745100    0.00000       Uiso       1.00
      C501          C  0.4345400  0.3602600  0.7493300    0.00000       Uiso       1.00
      C502          C  0.6585000  0.3551300  0.6762100    0.00000       Uiso       1.00
      C503          C  0.6333000  0.1705100  0.7500100    0.00000       Uiso       1.00
      C504          C  0.3855300  0.4306000  0.7913900    0.00000       Uiso       1.00
      H505          H  0.8935200  0.5806700  0.6727600    0.00000       Uiso       1.00
      H506          H  0.7595801  0.0114200  0.9189700    0.00000       Uiso       1.00
      H507          H  0.7897599  0.0325400  0.9181300    0.00000       Uiso       1.00
      H508          H  0.6938800  0.3253100  0.6836800    0.00000       Uiso       1.00
      H509          H  0.7302899  0.3599000  0.6708500    0.00000       Uiso       1.00
      H510          H  0.6683200  0.4242700  0.6571500    0.00000       Uiso       1.00
      H511          H  0.6311500  0.3904900  0.6682100    0.00000       Uiso       1.00
      H512          H  0.6002300  0.1403600  0.7414200    0.00000       Uiso       1.00
      H513          H  0.6283200  0.1002700  0.7639700    0.00000       Uiso       1.00
      H514          H  0.6988100  0.1542400  0.7850300    0.00000       Uiso       1.00
      H515          H  0.6709500  0.1941900  0.7618701    0.00000       Uiso       1.00
      H516          H  0.3969500  0.3363500  0.7599000    0.00000       Uiso       1.00
      H517          H  0.3688800  0.3760000  0.7834000    0.00000       Uiso       1.00
      H518          H  0.4392300  0.4303800  0.7649900    0.00000       Uiso       1.00
      H519          H  0.4675200  0.3905900  0.7420500    0.00000       Uiso       1.00
      H520          H  0.4385200  0.1408400  0.6656300    0.00000       Uiso       1.00
      H521          H  0.4017100  0.1062600  0.6552300    0.00000       Uiso       1.00
      H522          H  0.3398900  0.1704400  0.6713300    0.00000       Uiso       1.00
      H523          H  0.3765500  0.2048700  0.6824800    0.00000       Uiso       1.00
      H524          H  0.7456300  0.4065200  0.6514900    0.00000       Uiso       1.00
      H525          H  0.3240900  0.1237700  0.6519500    0.00000       Uiso       1.00
      H526          H  0.1754700  0.9496700  0.6727500    0.00000       Uiso       1.00
      H527          H  0.0391100  0.7347500  0.7669200    0.00000       Uiso       1.00
      H528          H  0.0297400  0.7963100  0.7669900    0.00000       Uiso       1.00
      H529          H  0.0117600  0.7271200  0.6743700    0.00000       Uiso       1.00
      H530          H  0.0359300  0.7347999  0.6303800    0.00000       Uiso       1.00
      H531          H  0.0035800  0.7538201  0.6338600    0.00000       Uiso       1.00
      H532          H  0.0758600  0.7096600  0.7428300    0.00000       Uiso       1.00
      H533          H  0.1123700  0.6755400  0.7494500    0.00000       Uiso       1.00
      H534          H  0.1572800  0.7293700  0.8397800    0.00000       Uiso       1.00
      H535          H  0.1209100  0.7642500  0.8328700    0.00000       Uiso       1.00
      H536          H  0.1053100  0.7682300  0.7081000    0.00000       Uiso       1.00
      H537          H  0.1314900  0.8077999  0.6800300    0.00000       Uiso       1.00
      H538          H  0.1020300  0.8577800  0.7899300    0.00000       Uiso       1.00
      H539          H  0.0756800  0.8190600  0.8178500    0.00000       Uiso       1.00
      H540          H  0.0662700  0.7783799  0.6356500    0.00000       Uiso       1.00
      H541          H  0.0574700  0.8046100  0.6765100    0.00000       Uiso       1.00
      H542          H  0.0338900  0.7973201  0.6312100    0.00000       Uiso       1.00
      H543          H  0.9474100  0.7662100  0.8300700    0.00000       Uiso       1.00
      H544          H  0.9106900  0.8007600  0.8356900    0.00000       Uiso       1.00
      H545          H  0.9562600  0.8553199  0.7479800    0.00000       Uiso       1.00
      H546          H  0.9930700  0.8214800  0.7425600    0.00000       Uiso       1.00
      H547          H  0.9930300  0.7120800  0.8177300    0.00000       Uiso       1.00
      H548          H  0.9669900  0.6731500  0.7894800    0.00000       Uiso       1.00
      H549          H  0.9382500  0.7224700  0.6779300    0.00000       Uiso       1.00
      H550          H  0.9641400  0.7622400  0.7062800    0.00000       Uiso       1.00
      H551          H  0.0178900  0.7481200  0.8302000    0.00000       Uiso       1.00
      H552          H  0.0508500  0.7830700  0.8303900    0.00000       Uiso       1.00
      H553          H  0.2721300  0.6001000  0.8661699    0.00000       Uiso       1.00
      H554          H  0.3022300  0.5636300  0.8950800    0.00000       Uiso       1.00
      H555          H  0.2458200  0.5012400  0.8450200    0.00000       Uiso       1.00
      H556          H  0.2154000  0.5380700  0.8151800    0.00000       Uiso       1.00
      H557          H  0.7949400  0.9290401  0.8630900    0.00000       Uiso       1.00
      H558          H  0.7650100  0.9652299  0.8927400    0.00000       Uiso       1.00
      H559          H  0.8212800  0.0280500  0.8444700    0.00000       Uiso       1.00
      H560          H  0.8515800  0.9914900  0.8138700    0.00000       Uiso       1.00
      H561          H  0.8116700  0.6130400  0.6131100    0.00000       Uiso       1.00
      H562          H  0.7820200  0.5788700  0.5749500    0.00000       Uiso       1.00
      H563          H  0.8354600  0.5127700  0.6209600    0.00000       Uiso       1.00
      H564          H  0.8648300  0.5465800  0.6594900    0.00000       Uiso       1.00
      H565          H  0.2572700  0.9173800  0.6142900    0.00000       Uiso       1.00
      H566          H  0.2866900  0.9515499  0.5760500    0.00000       Uiso       1.00
      H567          H  0.2334200  0.0176300  0.6218800    0.00000       Uiso       1.00
      H568          H  0.2042800  0.9838300  0.6605200    0.00000       Uiso       1.00
      H569          H  0.2621800  0.0180000  0.5445300    0.00000       Uiso       1.00
      H570          H  0.2920300  0.9964100  0.5439400    0.00000       Uiso       1.00
      H571          H  0.6715000  0.0797900  0.7933800    0.00000       Uiso       1.00
      H572          H  0.8728400  0.8207900  0.7938500    0.00000       Uiso       1.00
      H573          H  0.8360100  0.8551000  0.8054600    0.00000       Uiso       1.00
      H574          H  0.8967299  0.9211600  0.8076200    0.00000       Uiso       1.00
      H575          H  0.9343400  0.8877901  0.7977600    0.00000       Uiso       1.00
      H576          H  0.9646500  0.6394400  0.7296800    0.00000       Uiso       1.00
      H577          H  0.9360899  0.6001100  0.7054300    0.00000       Uiso       1.00
      H578          H  0.8691000  0.6563600  0.6730700    0.00000       Uiso       1.00
      H579          H  0.8974500  0.6956500  0.6979400    0.00000       Uiso       1.00
      H580          H  0.1721600  0.8349100  0.7006900    0.00000       Uiso       1.00
      H581          H  0.2004000  0.8741400  0.6755800    0.00000       Uiso       1.00
      H582          H  0.1330200  0.9303100  0.7052400    0.00000       Uiso       1.00
      H583          H  0.1045900  0.8910499  0.7297100    0.00000       Uiso       1.00
      H584          H  0.1328500  0.6430000  0.8019600    0.00000       Uiso       1.00
      H585          H  0.1699500  0.6087400  0.8116700    0.00000       Uiso       1.00
      H586          H  0.2309300  0.6744600  0.8074800    0.00000       Uiso       1.00
      H587          H  0.1939600  0.7086599  0.7969500    0.00000       Uiso       1.00
      H588          H  0.8200800  0.9022000  0.8198900    0.00000       Uiso       1.00
      H589          H  0.2470500  0.6271600  0.8224000    0.00000       Uiso       1.00
      H590          H  0.5308900  0.2347600  0.7068400    0.00000       Uiso       1.00
      H591          H  0.5376300  0.2966600  0.7066200    0.00000       Uiso       1.00
      H592          H  0.5578700  0.2278600  0.7987300    0.00000       Uiso       1.00
      H593          H  0.5334800  0.2349600  0.8427700    0.00000       Uiso       1.00
      H594          H  0.5654300  0.2546600  0.8393300    0.00000       Uiso       1.00
      H595          H  0.4960000  0.2073300  0.7259400    0.00000       Uiso       1.00
      H596          H  0.4601400  0.1724100  0.7197500    0.00000       Uiso       1.00
      H597          H  0.4111100  0.2275000  0.6374000    0.00000       Uiso       1.00
      H598          H  0.4465500  0.2630600  0.6439200    0.00000       Uiso       1.00
      H599          H  0.4614100  0.2676100  0.7606700    0.00000       Uiso       1.00
      H600          H  0.4354800  0.3081100  0.7860300    0.00000       Uiso       1.00
      H601          H  0.4726000  0.3575200  0.6815100    0.00000       Uiso       1.00
      H602          H  0.4990700  0.3173800  0.6566700    0.00000       Uiso       1.00
      H603          H  0.5344800  0.2979600  0.8413700    0.00000       Uiso       1.00
      H604          H  0.5026400  0.2780300  0.8381200    0.00000       Uiso       1.00
      H605          H  0.5102100  0.3041600  0.7965100    0.00000       Uiso       1.00
      H606          H  0.6222500  0.2677700  0.6460200    0.00000       Uiso       1.00
      H607          H  0.6579100  0.3031200  0.6400700    0.00000       Uiso       1.00
      H608          H  0.6085500  0.3589400  0.7199500    0.00000       Uiso       1.00
      H609          H  0.5725500  0.3241700  0.7257300    0.00000       Uiso       1.00
      H610          H  0.5693500  0.2141200  0.6564100    0.00000       Uiso       1.00
      H611          H  0.5955200  0.1737500  0.6814100    0.00000       Uiso       1.00
      H612          H  0.6325300  0.2225200  0.7873000    0.00000       Uiso       1.00
      H613          H  0.6068300  0.2632400  0.7618900    0.00000       Uiso       1.00
      H614          H  0.5771700  0.2591300  0.6247300    0.00000       Uiso       1.00
      H615          H  0.4914000  0.2725500  0.6243100    0.00000       Uiso       1.00
      H616          H  0.2988800  0.0988500  0.6047800    0.00000       Uiso       1.00
      H617          H  0.2682100  0.0635500  0.5736400    0.00000       Uiso       1.00
      H618          H  0.3247700  0.9992800  0.6164900    0.00000       Uiso       1.00
      H619          H  0.3558400  0.0349100  0.6483800    0.00000       Uiso       1.00
      H620          H  0.7702400  0.4314600  0.6037200    0.00000       Uiso       1.00
      H621          H  0.8005600  0.4668500  0.5723100    0.00000       Uiso       1.00
      H622          H  0.7440800  0.5309500  0.6153600    0.00000       Uiso       1.00
      H623          H  0.7134500  0.4952400  0.6476900    0.00000       Uiso       1.00
      H624          H  0.7557700  0.1108700  0.8447500    0.00000       Uiso       1.00
      H625          H  0.7852900  0.0767100  0.8831700    0.00000       Uiso       1.00
      H626          H  0.7293900  0.0111500  0.8431600    0.00000       Uiso       1.00
      H627          H  0.7000799  0.0450000  0.8044200    0.00000       Uiso       1.00
      H628          H  0.3116500  0.4186400  0.8430900    0.00000       Uiso       1.00
      H629          H  0.2820500  0.4522900  0.8821300    0.00000       Uiso       1.00
      H630          H  0.3378600  0.5184100  0.8450600    0.00000       Uiso       1.00
      H631          H  0.3672600  0.4850800  0.8056900    0.00000       Uiso       1.00
      H632          H  0.3076300  0.5171800  0.9204100    0.00000       Uiso       1.00
      H633          H  0.2775300  0.4959800  0.9185100    0.00000       Uiso       1.00
      H634          H  0.7764700  0.5339700  0.5428800    0.00000       Uiso       1.00
      H635          H  0.8063701  0.5124500  0.5434700    0.00000       Uiso       1.00
      H636          H  0.3959000  0.4504900  0.7938500    0.00000       Uiso       1.00
