data_CC-TAPH-COF
_audit_creation_date              0000-00-00
_audit_creation_method            'LanYouShi'
_symmetry_space_group_name_H-M    'P1'
_cell_length_a                    25.8040009
_cell_length_b                    6.7470002
_cell_length_c                    26.2324009
_cell_angle_alpha                 90.0000000
_cell_angle_beta                  101.7366028
_cell_angle_gamma                 90.0000000
loop_
_atom_site_label
_atom_site_type_symbol
_atom_site_fract_x
_atom_site_fract_y
_atom_site_fract_z
_atom_site_U_iso_or_equiv
_atom_site_adp_type
_atom_site_occupancy
        C1          C  0.1024110  0.4999980  0.0817890    0.00000       Uiso       1.00
        C2          C  0.5912030  0.4999980  0.5890170    0.00000       Uiso       1.00
        C3          C  0.0131350  0.4999980  0.9978400    0.00000       Uiso       1.00
        C4          C  0.5243430  0.4999980  0.4906130    0.00000       Uiso       1.00
        C5          C  0.5793040  0.4999980  0.4950310    0.00000       Uiso       1.00
        C6          C  0.0029260  0.4999980  0.0521360    0.00000       Uiso       1.00
        C7          C  0.5362430  0.4999980  0.5845990    0.00000       Uiso       1.00
        C8          C  0.1126190  0.4999980  0.0274920    0.00000       Uiso       1.00
        C9          C  0.4442570  0.4999980  0.5298520    0.00000       Uiso       1.00
       C10          C  0.0612790  0.4999980  0.9258130    0.00000       Uiso       1.00
       C11          C  0.6712890  0.4999980  0.5497770    0.00000       Uiso       1.00
       C12          C  0.0542660  0.4999980  0.1538160    0.00000       Uiso       1.00
       C13          C  0.6131880  0.4999980  0.5442970    0.00000       Uiso       1.00
       C14          C  0.0478080  0.4999980  0.0947420    0.00000       Uiso       1.00
       C15          C  0.5023580  0.4999980  0.5353320    0.00000       Uiso       1.00
       C16          C  0.0677370  0.4999980  0.9848880    0.00000       Uiso       1.00
       N17          N  0.6928010  0.4999980  0.5091420    0.00000       Uiso       1.00
       N18          N  0.0100330  0.4999980  0.1793320    0.00000       Uiso       1.00
       N19          N  0.4227460  0.4999980  0.5704880    0.00000       Uiso       1.00
       N20          N  0.1055130  0.4999980  0.9002979    0.00000       Uiso       1.00
       N21          N  0.1136310  0.4999980  0.4818510    0.00000       Uiso       1.00
       N22          N  0.0019150  0.4999980  0.5977790    0.00000       Uiso       1.00
       H23          H  0.0903210  0.4999980  0.5060390    0.00000       Uiso       1.00
       H24          H  0.0252250  0.4999980  0.5735900    0.00000       Uiso       1.00
       C25          C  0.0963350  0.4999980  0.4301310    0.00000       Uiso       1.00
       C26          C  0.9490930  0.4999980  0.5829110    0.00000       Uiso       1.00
       C27          C  0.0192100  0.4999980  0.6494990    0.00000       Uiso       1.00
       C28          C  0.1664540  0.4999980  0.4967180    0.00000       Uiso       1.00
       C29          C  0.1416720  0.4999980  0.4091550    0.00000       Uiso       1.00
       C30          C  0.9299800  0.4999980  0.6287891    0.00000       Uiso       1.00
       C31          C  0.9738740  0.4999980  0.6704740    0.00000       Uiso       1.00
       C32          C  0.1855670  0.4999980  0.4508400    0.00000       Uiso       1.00
       H33          H  0.1430190  0.4999980  0.3682320    0.00000       Uiso       1.00
       H34          H  0.8888350  0.4999980  0.6319110    0.00000       Uiso       1.00
       H35          H  0.9725270  0.4999980  0.7113971    0.00000       Uiso       1.00
       H36          H  0.2267110  0.4999980  0.4477190    0.00000       Uiso       1.00
       N37          N  0.9881749  0.4999980  0.4737250    0.00000       Uiso       1.00
       N38          N  0.1273720  0.4999980  0.6059050    0.00000       Uiso       1.00
       C39          C  0.9922329  0.4999980  0.4207320    0.00000       Uiso       1.00
       C40          C  0.9350180  0.4999980  0.4800990    0.00000       Uiso       1.00
       C41          C  0.1233130  0.4999980  0.6588980    0.00000       Uiso       1.00
       C42          C  0.1805280  0.4999980  0.5995300    0.00000       Uiso       1.00
       C43          C  0.9366810  0.4999980  0.3922290    0.00000       Uiso       1.00
       C44          C  0.9038680  0.4999980  0.4262810    0.00000       Uiso       1.00
       C45          C  0.1788660  0.4999980  0.6874009    0.00000       Uiso       1.00
       C46          C  0.2116780  0.4999980  0.6533480    0.00000       Uiso       1.00
       H47          H  0.9236880  0.4999980  0.3503270    0.00000       Uiso       1.00
       H48          H  0.8611240  0.4999980  0.4152690    0.00000       Uiso       1.00
       H49          H  0.1918580  0.4999980  0.7293020    0.00000       Uiso       1.00
       H50          H  0.2544230  0.4999980  0.6643610    0.00000       Uiso       1.00
       C51          C  0.0381080  0.4999980  0.4005720    0.00000       Uiso       1.00
       C52          C  0.9167640  0.4999980  0.5264830    0.00000       Uiso       1.00
       C53          C  0.0774370  0.4999980  0.6790570    0.00000       Uiso       1.00
       C54          C  0.1987820  0.4999980  0.5531460    0.00000       Uiso       1.00
       C55          C  0.0308620  0.4999980  0.3433860    0.00000       Uiso       1.00
       C56          C  0.8588900  0.4999980  0.5218570    0.00000       Uiso       1.00
       C57          C  0.0846840  0.4999980  0.7362441    0.00000       Uiso       1.00
       C58          C  0.2566560  0.4999980  0.5577730    0.00000       Uiso       1.00
       C59          C  0.0273280  0.3202560  0.3160900    0.00000       Uiso       1.00
       C60          C  0.8312800  0.6797330  0.5197620    0.00000       Uiso       1.00
       C61          C  0.0882170  0.3202560  0.7635390    0.00000       Uiso       1.00
       C62          C  0.2842660  0.6797330  0.5598680    0.00000       Uiso       1.00
       C63          C  0.0273280  0.6797390  0.3160900    0.00000       Uiso       1.00
       C64          C  0.8312800  0.3202620  0.5197620    0.00000       Uiso       1.00
       C65          C  0.0882170  0.6797390  0.7635390    0.00000       Uiso       1.00
       C66          C  0.2842660  0.3202620  0.5598680    0.00000       Uiso       1.00
       H67          H  0.0297200  0.1810330  0.3369690    0.00000       Uiso       1.00
       H68          H  0.8523740  0.8189870  0.5212730    0.00000       Uiso       1.00
       H69          H  0.0858250  0.1810330  0.7426600    0.00000       Uiso       1.00
       H70          H  0.2631720  0.8189870  0.5583560    0.00000       Uiso       1.00
       H71          H  0.0297200  0.8189620  0.3369690    0.00000       Uiso       1.00
       H72          H  0.8523740  0.1810080  0.5212730    0.00000       Uiso       1.00
       H73          H  0.0858250  0.8189620  0.7426600    0.00000       Uiso       1.00
       H74          H  0.2631720  0.1810080  0.5583560    0.00000       Uiso       1.00
       C75          C  0.0202350  0.3205540  0.2617580    0.00000       Uiso       1.00
       C76          C  0.7763320  0.6794060  0.5155220    0.00000       Uiso       1.00
       C77          C  0.0953100  0.3205540  0.8178720    0.00000       Uiso       1.00
       C78          C  0.3392150  0.6794060  0.5641070    0.00000       Uiso       1.00
       C79          C  0.0202350  0.6794410  0.2617580    0.00000       Uiso       1.00
       C80          C  0.7763320  0.3205890  0.5155220    0.00000       Uiso       1.00
       C81          C  0.0953100  0.6794410  0.8178720    0.00000       Uiso       1.00
       C82          C  0.3392150  0.3205890  0.5641070    0.00000       Uiso       1.00
       H83          H  0.0169350  0.1822710  0.2405160    0.00000       Uiso       1.00
       H84          H  0.7548320  0.8175900  0.5136690    0.00000       Uiso       1.00
       H85          H  0.0986110  0.1822710  0.8391130    0.00000       Uiso       1.00
       H86          H  0.3607140  0.8175900  0.5659600    0.00000       Uiso       1.00
       H87          H  0.0169350  0.8177240  0.2405160    0.00000       Uiso       1.00
       H88          H  0.7548320  0.1824050  0.5136690    0.00000       Uiso       1.00
       H89          H  0.0986110  0.8177240  0.8391130    0.00000       Uiso       1.00
       H90          H  0.3607140  0.1824050  0.5659600    0.00000       Uiso       1.00
       C91          C  0.0169060  0.4999980  0.2345910    0.00000       Uiso       1.00
       C92          C  0.7488639  0.4999980  0.5136180    0.00000       Uiso       1.00
       C93          C  0.0986390  0.4999980  0.8450390    0.00000       Uiso       1.00
       C94          C  0.3666830  0.4999980  0.5660110    0.00000       Uiso       1.00
       H95          H  0.1382480  0.4999980  0.1135570    0.00000       Uiso       1.00
       H96          H  0.6165770  0.4999980  0.6273780    0.00000       Uiso       1.00
       H97          H  0.5955260  0.4999980  0.4600460    0.00000       Uiso       1.00
       H98          H  0.4194570  0.4999980  0.4911050    0.00000       Uiso       1.00
       O99          O  0.9472090  0.4999980  0.0476300    0.00000       Uiso       1.00
      H100          H  0.0182610  0.4999980  0.5023000    0.00000       Uiso       1.00
      H101          H  0.0214830  0.4999980  0.8996960    0.00000       Uiso       1.00
      C102          C  0.9104630  0.4999980  0.0802070    0.00000       Uiso       1.00
      O103          O  0.9224010  0.4999980  0.1270310    0.00000       Uiso       1.00
      H104          H  0.9772980  0.4999980  0.9660720    0.00000       Uiso       1.00
      H105          H  0.4989690  0.4999980  0.4522510    0.00000       Uiso       1.00
      H106          H  0.5200210  0.4999980  0.6195840    0.00000       Uiso       1.00
      H107          H  0.6960900  0.4999980  0.5885240    0.00000       Uiso       1.00
      O108          O  0.1683370  0.4999980  0.0319980    0.00000       Uiso       1.00
      H109          H  0.0972840  0.4999980  0.5773290    0.00000       Uiso       1.00
      H110          H  0.0940620  0.4999980  0.1799330    0.00000       Uiso       1.00
      C111          C  0.2050830  0.4999980  0.9994220    0.00000       Uiso       1.00
      O112          O  0.1931460  0.4999980  0.9525990    0.00000       Uiso       1.00
      C113          C  0.6061030  0.4999980  0.1858840    0.00000       Uiso       1.00
      C114          C  0.5522560  0.4999980  0.1624970    0.00000       Uiso       1.00
      C115          C  0.5366660  0.4999980  0.1081740    0.00000       Uiso       1.00
      C116          C  0.5749220  0.4999980  0.0772170    0.00000       Uiso       1.00
      C117          C  0.6287720  0.4999980  0.1005970    0.00000       Uiso       1.00
      C118          C  0.6443580  0.4999980  0.1549310    0.00000       Uiso       1.00
      C119          C  0.6670269  0.4999980  0.0696440    0.00000       Uiso       1.00
      C120          C  0.7208719  0.4999980  0.0930230    0.00000       Uiso       1.00
      C121          C  0.7435410  0.4999980  0.0077360    0.00000       Uiso       1.00
      C122          C  0.7591320  0.4999980  0.0620680    0.00000       Uiso       1.00
      C123          C  0.7818010  0.4999980  0.9767820    0.00000       Uiso       1.00
      C124          C  0.8356459  0.4999980  0.0001600    0.00000       Uiso       1.00
      C125          C  0.8512319  0.4999980  0.0544940    0.00000       Uiso       1.00
      C126          C  0.8129770  0.4999980  0.0854470    0.00000       Uiso       1.00
      H127          H  0.6181290  0.4999980  0.2277990    0.00000       Uiso       1.00
      H128          H  0.5227410  0.4999980  0.1863820    0.00000       Uiso       1.00
      H129          H  0.4951280  0.4999980  0.0901370    0.00000       Uiso       1.00
      H130          H  0.5628970  0.4999980  0.0353030    0.00000       Uiso       1.00
      H131          H  0.7697750  0.4999980  0.9348680    0.00000       Uiso       1.00
      H132          H  0.8651590  0.4999980  0.9762830    0.00000       Uiso       1.00
      H133          H  0.8250030  0.4999980  0.1273610    0.00000       Uiso       1.00
      C134          C  0.5094440  0.4999980  0.8937450    0.00000       Uiso       1.00
      C135          C  0.5632910  0.4999980  0.9171320    0.00000       Uiso       1.00
      C136          C  0.5788810  0.4999980  0.9714560    0.00000       Uiso       1.00
      C137          C  0.5406250  0.4999980  0.0024120    0.00000       Uiso       1.00
      C138          C  0.4867750  0.4999980  0.9790320    0.00000       Uiso       1.00
      C139          C  0.4711890  0.4999980  0.9246980    0.00000       Uiso       1.00
      C140          C  0.4485200  0.4999980  0.0099840    0.00000       Uiso       1.00
      C141          C  0.3946740  0.4999980  0.9866060    0.00000       Uiso       1.00
      C142          C  0.3720050  0.4999980  0.0718920    0.00000       Uiso       1.00
      C143          C  0.3564150  0.4999980  0.0175600    0.00000       Uiso       1.00
      C144          C  0.3337460  0.4999980  0.1028470    0.00000       Uiso       1.00
      C145          C  0.2799000  0.4999980  0.0794680    0.00000       Uiso       1.00
      C146          C  0.2643140  0.4999980  0.0251350    0.00000       Uiso       1.00
      C147          C  0.3025690  0.4999980  0.9941820    0.00000       Uiso       1.00
      H148          H  0.4974180  0.4999980  0.8518310    0.00000       Uiso       1.00
      H149          H  0.5928060  0.4999980  0.8932480    0.00000       Uiso       1.00
      H150          H  0.6204190  0.4999980  0.9894920    0.00000       Uiso       1.00
      H151          H  0.3457720  0.4999980  0.1447610    0.00000       Uiso       1.00
      H152          H  0.2503870  0.4999980  0.1033460    0.00000       Uiso       1.00
      H153          H  0.2905430  0.4999980  0.9522680    0.00000       Uiso       1.00
      H154          H  0.4612140  0.4999980  0.0542270    0.00000       Uiso       1.00
      H155          H  0.3819810  0.4999980  0.9423640    0.00000       Uiso       1.00
      H156          H  0.4273430  0.4999980  0.9056620    0.00000       Uiso       1.00
      H157          H  0.6543320  0.4999980  0.0254020    0.00000       Uiso       1.00
      H158          H  0.7335660  0.4999980  0.1372660    0.00000       Uiso       1.00
      H159          H  0.6996950  0.4999980  0.9887010    0.00000       Uiso       1.00
