data_COF-10
_audit_creation_date              0000-00-00
_audit_creation_method            'LanYouShi'
_symmetry_space_group_name_H-M    'P1'
_cell_length_a                    37.8098984
_cell_length_b                    37.8098984
_cell_length_c                    3.4763000
_cell_angle_alpha                 90.0000000
_cell_angle_beta                  90.0000000
_cell_angle_gamma                 120.0000000
loop_
_atom_site_label
_atom_site_type_symbol
_atom_site_fract_x
_atom_site_fract_y
_atom_site_fract_z
_atom_site_U_iso_or_equiv
_atom_site_adp_type
_atom_site_occupancy
        B1          B  0.8426900  0.4213450  0.5000000    0.00000       Uiso       1.00
        C2          C  0.8899500  0.4449750  0.5000000    0.00000       Uiso       1.00
        C3          C  0.9768300  0.4884150  0.5000000    0.00000       Uiso       1.00
        B4          B  0.5786550  0.4213450  0.5000000    0.00000       Uiso       1.00
        C5          C  0.5550250  0.4449750  0.5000000    0.00000       Uiso       1.00
        C6          C  0.5115850  0.4884150  0.5000000    0.00000       Uiso       1.00
        B7          B  0.5786550  0.1573100  0.5000000    0.00000       Uiso       1.00
        C8          C  0.5550250  0.1100500  0.5000000    0.00000       Uiso       1.00
        C9          C  0.5115850  0.0231700  0.5000000    0.00000       Uiso       1.00
       B10          B  0.1573100  0.5786550  0.5000000    0.00000       Uiso       1.00
       C11          C  0.1100500  0.5550250  0.5000000    0.00000       Uiso       1.00
       C12          C  0.0231700  0.5115850  0.5000000    0.00000       Uiso       1.00
       B13          B  0.4213450  0.5786550  0.5000000    0.00000       Uiso       1.00
       C14          C  0.4449750  0.5550250  0.5000000    0.00000       Uiso       1.00
       C15          C  0.4884150  0.5115850  0.5000000    0.00000       Uiso       1.00
       B16          B  0.4213450  0.8426900  0.5000000    0.00000       Uiso       1.00
       C17          C  0.4449750  0.8899500  0.5000000    0.00000       Uiso       1.00
       C18          C  0.4884150  0.9768300  0.5000000    0.00000       Uiso       1.00
       O19          O  0.8177800  0.3765000  0.5000000    0.00000       Uiso       1.00
       C20          C  0.9115000  0.4239000  0.5000000    0.00000       Uiso       1.00
       C21          C  0.9541700  0.4451400  0.5000000    0.00000       Uiso       1.00
       C22          C  0.7044700  0.3332300  0.5000000    0.00000       Uiso       1.00
       C23          C  0.7788700  0.3714400  0.5000000    0.00000       Uiso       1.00
       C24          C  0.7427700  0.3343600  0.5000000    0.00000       Uiso       1.00
       H25          H  0.7461500  0.3077900  0.5000000    0.00000       Uiso       1.00
       H26          H  0.8954300  0.3908100  0.5000000    0.00000       Uiso       1.00
       H27          H  0.9683800  0.4266200  0.5000000    0.00000       Uiso       1.00
       O28          O  0.6235000  0.4412800  0.5000000    0.00000       Uiso       1.00
       C29          C  0.5761000  0.4876000  0.5000000    0.00000       Uiso       1.00
       C30          C  0.5548600  0.5090300  0.5000000    0.00000       Uiso       1.00
       C31          C  0.6667700  0.3712400  0.5000000    0.00000       Uiso       1.00
       C32          C  0.6285600  0.4074300  0.5000000    0.00000       Uiso       1.00
       C33          C  0.6656400  0.4084100  0.5000000    0.00000       Uiso       1.00
       H34          H  0.6922100  0.4383600  0.5000000    0.00000       Uiso       1.00
       H35          H  0.6091900  0.5046200  0.5000000    0.00000       Uiso       1.00
       H36          H  0.5733800  0.5417600  0.5000000    0.00000       Uiso       1.00
       O37          O  0.5587200  0.1822200  0.5000000    0.00000       Uiso       1.00
       C38          C  0.5124000  0.0885000  0.5000000    0.00000       Uiso       1.00
       C39          C  0.4909700  0.0458300  0.5000000    0.00000       Uiso       1.00
       C40          C  0.6287600  0.2955300  0.5000000    0.00000       Uiso       1.00
       C41          C  0.5925700  0.2211300  0.5000000    0.00000       Uiso       1.00
       C42          C  0.5915900  0.2572300  0.5000000    0.00000       Uiso       1.00
       H43          H  0.5616400  0.2538500  0.5000000    0.00000       Uiso       1.00
       H44          H  0.4953800  0.1045700  0.5000000    0.00000       Uiso       1.00
       H45          H  0.4582400  0.0316200  0.5000000    0.00000       Uiso       1.00
       O46          O  0.1822200  0.6235000  0.5000000    0.00000       Uiso       1.00
       C47          C  0.0885000  0.5761000  0.5000000    0.00000       Uiso       1.00
       C48          C  0.0458300  0.5548600  0.5000000    0.00000       Uiso       1.00
       C49          C  0.2955300  0.6667700  0.5000000    0.00000       Uiso       1.00
       C50          C  0.2211300  0.6285600  0.5000000    0.00000       Uiso       1.00
       C51          C  0.2572300  0.6656400  0.5000000    0.00000       Uiso       1.00
       H52          H  0.2538500  0.6922100  0.5000000    0.00000       Uiso       1.00
       H53          H  0.1045700  0.6091900  0.5000000    0.00000       Uiso       1.00
       H54          H  0.0316200  0.5733800  0.5000000    0.00000       Uiso       1.00
       O55          O  0.3765000  0.5587200  0.5000000    0.00000       Uiso       1.00
       C56          C  0.4239000  0.5124000  0.5000000    0.00000       Uiso       1.00
       C57          C  0.4451400  0.4909700  0.5000000    0.00000       Uiso       1.00
       C58          C  0.3332300  0.6287600  0.5000000    0.00000       Uiso       1.00
       C59          C  0.3714400  0.5925700  0.5000000    0.00000       Uiso       1.00
       C60          C  0.3343600  0.5915900  0.5000000    0.00000       Uiso       1.00
       H61          H  0.3077900  0.5616400  0.5000000    0.00000       Uiso       1.00
       H62          H  0.3908100  0.4953800  0.5000000    0.00000       Uiso       1.00
       H63          H  0.4266200  0.4582400  0.5000000    0.00000       Uiso       1.00
       O64          O  0.4412800  0.8177800  0.5000000    0.00000       Uiso       1.00
       C65          C  0.4876000  0.9115000  0.5000000    0.00000       Uiso       1.00
       C66          C  0.5090300  0.9541700  0.5000000    0.00000       Uiso       1.00
       C67          C  0.3712400  0.7044700  0.5000000    0.00000       Uiso       1.00
       C68          C  0.4074300  0.7788700  0.5000000    0.00000       Uiso       1.00
       C69          C  0.4084100  0.7427700  0.5000000    0.00000       Uiso       1.00
       H70          H  0.4383600  0.7461500  0.5000000    0.00000       Uiso       1.00
       H71          H  0.5046200  0.8954300  0.5000000    0.00000       Uiso       1.00
       H72          H  0.5417600  0.9683800  0.5000000    0.00000       Uiso       1.00
       O73          O  0.3765000  0.8177800  0.5000000    0.00000       Uiso       1.00
       C74          C  0.4239000  0.9115000  0.5000000    0.00000       Uiso       1.00
       C75          C  0.4451400  0.9541700  0.5000000    0.00000       Uiso       1.00
       C76          C  0.3332300  0.7044700  0.5000000    0.00000       Uiso       1.00
       C77          C  0.3714400  0.7788700  0.5000000    0.00000       Uiso       1.00
       C78          C  0.3343600  0.7427700  0.5000000    0.00000       Uiso       1.00
       H79          H  0.3077900  0.7461500  0.5000000    0.00000       Uiso       1.00
       H80          H  0.3908100  0.8954300  0.5000000    0.00000       Uiso       1.00
       H81          H  0.4266200  0.9683800  0.5000000    0.00000       Uiso       1.00
       O82          O  0.4412800  0.6235000  0.5000000    0.00000       Uiso       1.00
       C83          C  0.4876000  0.5761000  0.5000000    0.00000       Uiso       1.00
       C84          C  0.5090300  0.5548600  0.5000000    0.00000       Uiso       1.00
       C85          C  0.3712400  0.6667700  0.5000000    0.00000       Uiso       1.00
       C86          C  0.4074300  0.6285600  0.5000000    0.00000       Uiso       1.00
       C87          C  0.4084100  0.6656400  0.5000000    0.00000       Uiso       1.00
       H88          H  0.4383600  0.6922100  0.5000000    0.00000       Uiso       1.00
       H89          H  0.5046200  0.6091900  0.5000000    0.00000       Uiso       1.00
       H90          H  0.5417600  0.5733800  0.5000000    0.00000       Uiso       1.00
       O91          O  0.1822200  0.5587200  0.5000000    0.00000       Uiso       1.00
       C92          C  0.0885000  0.5124000  0.5000000    0.00000       Uiso       1.00
       C93          C  0.0458300  0.4909700  0.5000000    0.00000       Uiso       1.00
       C94          C  0.2955300  0.6287600  0.5000000    0.00000       Uiso       1.00
       C95          C  0.2211300  0.5925700  0.5000000    0.00000       Uiso       1.00
       C96          C  0.2572300  0.5915900  0.5000000    0.00000       Uiso       1.00
       H97          H  0.2538500  0.5616400  0.5000000    0.00000       Uiso       1.00
       H98          H  0.1045700  0.4953800  0.5000000    0.00000       Uiso       1.00
       H99          H  0.0316200  0.4582400  0.5000000    0.00000       Uiso       1.00
      O100          O  0.6235000  0.1822200  0.5000000    0.00000       Uiso       1.00
      C101          C  0.5761000  0.0885000  0.5000000    0.00000       Uiso       1.00
      C102          C  0.5548600  0.0458300  0.5000000    0.00000       Uiso       1.00
      C103          C  0.6667700  0.2955300  0.5000000    0.00000       Uiso       1.00
      C104          C  0.6285600  0.2211300  0.5000000    0.00000       Uiso       1.00
      C105          C  0.6656400  0.2572300  0.5000000    0.00000       Uiso       1.00
      H106          H  0.6922100  0.2538500  0.5000000    0.00000       Uiso       1.00
      H107          H  0.6091900  0.1045700  0.5000000    0.00000       Uiso       1.00
      H108          H  0.5733800  0.0316200  0.5000000    0.00000       Uiso       1.00
      O109          O  0.5587200  0.3765000  0.5000000    0.00000       Uiso       1.00
      C110          C  0.5124000  0.4239000  0.5000000    0.00000       Uiso       1.00
      C111          C  0.4909700  0.4451400  0.5000000    0.00000       Uiso       1.00
      C112          C  0.6287600  0.3332300  0.5000000    0.00000       Uiso       1.00
      C113          C  0.5925700  0.3714400  0.5000000    0.00000       Uiso       1.00
      C114          C  0.5915900  0.3343600  0.5000000    0.00000       Uiso       1.00
      H115          H  0.5616400  0.3077900  0.5000000    0.00000       Uiso       1.00
      H116          H  0.4953800  0.3908100  0.5000000    0.00000       Uiso       1.00
      H117          H  0.4582400  0.4266200  0.5000000    0.00000       Uiso       1.00
      O118          O  0.8177800  0.4412800  0.5000000    0.00000       Uiso       1.00
      C119          C  0.9115000  0.4876000  0.5000000    0.00000       Uiso       1.00
      C120          C  0.9541700  0.5090300  0.5000000    0.00000       Uiso       1.00
      C121          C  0.7044700  0.3712400  0.5000000    0.00000       Uiso       1.00
      C122          C  0.7788700  0.4074300  0.5000000    0.00000       Uiso       1.00
      C123          C  0.7427700  0.4084100  0.5000000    0.00000       Uiso       1.00
      H124          H  0.7461500  0.4383600  0.5000000    0.00000       Uiso       1.00
      H125          H  0.8954300  0.5046200  0.5000000    0.00000       Uiso       1.00
      H126          H  0.9683800  0.5417600  0.5000000    0.00000       Uiso       1.00
