data_COF-112
_audit_creation_date              0000-00-00
_audit_creation_method            'LanYouShi'
_symmetry_space_group_name_H-M    'P1'
_cell_length_a                    19.7413006
_cell_length_b                    25.0963993
_cell_length_c                    12.2503996
_cell_angle_alpha                 90.0000000
_cell_angle_beta                  90.0000000
_cell_angle_gamma                 90.0000000
loop_
_atom_site_label
_atom_site_type_symbol
_atom_site_fract_x
_atom_site_fract_y
_atom_site_fract_z
_atom_site_U_iso_or_equiv
_atom_site_adp_type
_atom_site_occupancy
       xx1          N  0.5642900  0.5642900  0.4598600    0.00000       Uiso       1.00
       xx2          N  0.4357400  0.5643400  0.5321000    0.00000       Uiso       1.00
       xx3          C  0.5366000  0.4634000  0.7111499    0.00000       Uiso       1.00
       xx4          C  0.5366000  0.5366000  0.2777600    0.00000       Uiso       1.00
       xx5          C  0.5366000  0.4634000  0.8237500    0.00000       Uiso       1.00
       xx6          C  0.5366000  0.5366000  0.1651600    0.00000       Uiso       1.00
       xx7          C  0.5715200  0.4272100  0.6390600    0.00000       Uiso       1.00
       xx8          C  0.5722800  0.5722700  0.3532700    0.00000       Uiso       1.00
       xx9          C  0.4042700  0.4049200  0.5437900    0.00000       Uiso       1.00
      xx10          C  0.5953000  0.4047000  0.4478600    0.00000       Uiso       1.00
      xx11          C  0.6271800  0.4293000  0.3603200    0.00000       Uiso       1.00
      xx12          C  0.5936700  0.3494400  0.4544500    0.00000       Uiso       1.00
      xx13          C  0.5930600  0.6493300  0.5309900    0.00000       Uiso       1.00
      xx14          C  0.6265800  0.5694700  0.6252200    0.00000       Uiso       1.00
      xx15          H  0.5674900  0.4325100  0.8702400    0.00000       Uiso       1.00
      xx16          H  0.5639700  0.5639700  0.1239700    0.00000       Uiso       1.00
      xx17          H  0.6284600  0.4745700  0.3547900    0.00000       Uiso       1.00
      xx18          H  0.5674300  0.3292300  0.5261700    0.00000       Uiso       1.00
      xx19          H  0.5668500  0.6672100  0.4566800    0.00000       Uiso       1.00
      xx20          H  0.6273500  0.5241200  0.6266900    0.00000       Uiso       1.00
      xx21          B  0.2646800  0.0714800  0.4434700    0.00000       Uiso       1.00
      xx22          F  0.2038500  0.0776000  0.5038300    0.00000       Uiso       1.00
      xx23          F  0.3088400  0.0366300  0.4999000    0.00000       Uiso       1.00
      xx24          F  0.2500200  0.0495700  0.3394500    0.00000       Uiso       1.00
      xx25          F  0.2964800  0.1218300  0.4306000    0.00000       Uiso       1.00
      xx26          H  0.3963500  0.6068400  0.6722001    0.00000       Uiso       1.00
      xx27          H  0.6060400  0.6060000  0.3230700    0.00000       Uiso       1.00
      xx28          N  0.5642900  0.0642900  0.9598600    0.00000       Uiso       1.00
      xx29          N  0.4357400  0.0643400  0.0321000    0.00000       Uiso       1.00
      xx30          C  0.5366000  0.9634000  0.2111500    0.00000       Uiso       1.00
      xx31          C  0.5366000  0.0366000  0.7777600    0.00000       Uiso       1.00
      xx32          C  0.5366000  0.9634000  0.3237500    0.00000       Uiso       1.00
      xx33          C  0.5366000  0.0366000  0.6651600    0.00000       Uiso       1.00
      xx34          C  0.5715200  0.9272100  0.1390600    0.00000       Uiso       1.00
      xx35          C  0.5722800  0.0722700  0.8532700    0.00000       Uiso       1.00
      xx36          C  0.4042700  0.9049200  0.0437900    0.00000       Uiso       1.00
      xx37          C  0.5953000  0.9047000  0.9478600    0.00000       Uiso       1.00
      xx38          C  0.6271800  0.9293000  0.8603200    0.00000       Uiso       1.00
      xx39          C  0.5936700  0.8494400  0.9544500    0.00000       Uiso       1.00
      xx40          C  0.5930600  0.1493300  0.0309900    0.00000       Uiso       1.00
      xx41          C  0.6265800  0.0694700  0.1252200    0.00000       Uiso       1.00
      xx42          H  0.5674900  0.9325100  0.3702400    0.00000       Uiso       1.00
      xx43          H  0.5639700  0.0639700  0.6239700    0.00000       Uiso       1.00
      xx44          H  0.6284600  0.9745700  0.8547900    0.00000       Uiso       1.00
      xx45          H  0.5674300  0.8292300  0.0261700    0.00000       Uiso       1.00
      xx46          H  0.5668500  0.1672100  0.9566800    0.00000       Uiso       1.00
      xx47          H  0.6273500  0.0241200  0.1266900    0.00000       Uiso       1.00
      xx48          B  0.2646800  0.5714800  0.9434700    0.00000       Uiso       1.00
      xx49          F  0.2038500  0.5776000  1.0038300    0.00000       Uiso       1.00
      xx50          F  0.3088400  0.5366300  0.9999000    0.00000       Uiso       1.00
      xx51          F  0.2500200  0.5495700  0.8394500    0.00000       Uiso       1.00
      xx52          F  0.2964800  0.6218300  0.9306000    0.00000       Uiso       1.00
      xx53          H  0.3963500  0.1068400  0.1722000    0.00000       Uiso       1.00
      xx54          H  0.6060400  0.1060000  0.8230700    0.00000       Uiso       1.00
      xx55          N  0.0642900  0.5642900  0.9598600    0.00000       Uiso       1.00
      xx56          N  0.9357400  0.5643400  0.0321000    0.00000       Uiso       1.00
      xx57          C  0.0366000  0.4634000  0.2111500    0.00000       Uiso       1.00
      xx58          C  0.0366000  0.5366000  0.7777600    0.00000       Uiso       1.00
      xx59          C  0.0366000  0.4634000  0.3237500    0.00000       Uiso       1.00
      xx60          C  0.0366000  0.5366000  0.6651600    0.00000       Uiso       1.00
      xx61          C  0.0715200  0.4272100  0.1390600    0.00000       Uiso       1.00
      xx62          C  0.0722800  0.5722700  0.8532700    0.00000       Uiso       1.00
      xx63          C  0.9042700  0.4049200  0.0437900    0.00000       Uiso       1.00
      xx64          C  0.0953000  0.4047000  0.9478600    0.00000       Uiso       1.00
      xx65          C  0.1271800  0.4293000  0.8603200    0.00000       Uiso       1.00
      xx66          C  0.0936700  0.3494400  0.9544500    0.00000       Uiso       1.00
      xx67          C  0.0930600  0.6493300  0.0309900    0.00000       Uiso       1.00
      xx68          C  0.1265800  0.5694700  0.1252200    0.00000       Uiso       1.00
      xx69          H  0.0674900  0.4325100  0.3702400    0.00000       Uiso       1.00
      xx70          H  0.0639700  0.5639700  0.6239700    0.00000       Uiso       1.00
      xx71          H  0.1284600  0.4745700  0.8547900    0.00000       Uiso       1.00
      xx72          H  0.0674300  0.3292300  0.0261700    0.00000       Uiso       1.00
      xx73          H  0.0668500  0.6672100  0.9566800    0.00000       Uiso       1.00
      xx74          H  0.1273500  0.5241200  0.1266900    0.00000       Uiso       1.00
      xx75          B  0.7646800  0.0714800  0.9434700    0.00000       Uiso       1.00
      xx76          F  0.7038500  0.0776000  1.0038300    0.00000       Uiso       1.00
      xx77          F  0.8088400  0.0366300  0.9999000    0.00000       Uiso       1.00
      xx78          F  0.7500200  0.0495700  0.8394500    0.00000       Uiso       1.00
      xx79          F  0.7964800  0.1218300  0.9306000    0.00000       Uiso       1.00
      xx80          H  0.8963501  0.6068400  0.1722000    0.00000       Uiso       1.00
      xx81          H  0.1060400  0.6060000  0.8230700    0.00000       Uiso       1.00
      xx82          N  0.0642900  0.0642900  0.4598600    0.00000       Uiso       1.00
      xx83          N  0.9357400  0.0643400  0.5321000    0.00000       Uiso       1.00
      xx84          C  0.0366000  0.9634000  0.7111499    0.00000       Uiso       1.00
      xx85          C  0.0366000  0.0366000  0.2777600    0.00000       Uiso       1.00
      xx86          C  0.0366000  0.9634000  0.8237500    0.00000       Uiso       1.00
      xx87          C  0.0366000  0.0366000  0.1651600    0.00000       Uiso       1.00
      xx88          C  0.0715200  0.9272100  0.6390600    0.00000       Uiso       1.00
      xx89          C  0.0722800  0.0722700  0.3532700    0.00000       Uiso       1.00
      xx90          C  0.9042700  0.9049200  0.5437900    0.00000       Uiso       1.00
      xx91          C  0.0953000  0.9047000  0.4478600    0.00000       Uiso       1.00
      xx92          C  0.1271800  0.9293000  0.3603200    0.00000       Uiso       1.00
      xx93          C  0.0936700  0.8494400  0.4544500    0.00000       Uiso       1.00
      xx94          C  0.0930600  0.1493300  0.5309900    0.00000       Uiso       1.00
      xx95          C  0.1265800  0.0694700  0.6252200    0.00000       Uiso       1.00
      xx96          H  0.0674900  0.9325100  0.8702400    0.00000       Uiso       1.00
      xx97          H  0.0639700  0.0639700  0.1239700    0.00000       Uiso       1.00
      xx98          H  0.1284600  0.9745700  0.3547900    0.00000       Uiso       1.00
      xx99          H  0.0674300  0.8292300  0.5261700    0.00000       Uiso       1.00
     xx100          H  0.0668500  0.1672100  0.4566800    0.00000       Uiso       1.00
     xx101          H  0.1273500  0.0241200  0.6266900    0.00000       Uiso       1.00
     xx102          B  0.7646800  0.5714800  0.4434700    0.00000       Uiso       1.00
     xx103          F  0.7038500  0.5776000  0.5038300    0.00000       Uiso       1.00
     xx104          F  0.8088400  0.5366300  0.4999000    0.00000       Uiso       1.00
     xx105          F  0.7500200  0.5495700  0.3394500    0.00000       Uiso       1.00
     xx106          F  0.7964800  0.6218300  0.4306000    0.00000       Uiso       1.00
     xx107          H  0.8963501  0.1068400  0.6722001    0.00000       Uiso       1.00
     xx108          H  0.1060400  0.1060000  0.3230700    0.00000       Uiso       1.00
     xx109          N  0.4357100  0.4357100  0.4598600    0.00000       Uiso       1.00
     xx110          N  0.5642600  0.4356600  0.5321000    0.00000       Uiso       1.00
     xx111          C  0.4634000  0.5366000  0.7111499    0.00000       Uiso       1.00
     xx112          C  0.4634000  0.4634000  0.2777600    0.00000       Uiso       1.00
     xx113          C  0.4634000  0.5366000  0.8237500    0.00000       Uiso       1.00
     xx114          C  0.4634000  0.4634000  0.1651600    0.00000       Uiso       1.00
     xx115          C  0.4284800  0.5727900  0.6390600    0.00000       Uiso       1.00
     xx116          C  0.4277200  0.4277300  0.3532700    0.00000       Uiso       1.00
     xx117          C  0.5957300  0.5950800  0.5437900    0.00000       Uiso       1.00
     xx118          C  0.4047000  0.5953000  0.4478600    0.00000       Uiso       1.00
     xx119          C  0.3728200  0.5707000  0.3603200    0.00000       Uiso       1.00
     xx120          C  0.4063300  0.6505600  0.4544500    0.00000       Uiso       1.00
     xx121          C  0.4069400  0.3506700  0.5309900    0.00000       Uiso       1.00
     xx122          C  0.3734200  0.4305300  0.6252200    0.00000       Uiso       1.00
     xx123          H  0.4325100  0.5674900  0.8702400    0.00000       Uiso       1.00
     xx124          H  0.4360300  0.4360300  0.1239700    0.00000       Uiso       1.00
     xx125          H  0.3715400  0.5254300  0.3547900    0.00000       Uiso       1.00
     xx126          H  0.4325700  0.6707700  0.5261700    0.00000       Uiso       1.00
     xx127          H  0.4331500  0.3327900  0.4566800    0.00000       Uiso       1.00
     xx128          H  0.3726500  0.4758800  0.6266900    0.00000       Uiso       1.00
     xx129          B  0.7353200  0.9285200  0.4434700    0.00000       Uiso       1.00
     xx130          F  0.7961500  0.9224000  0.5038300    0.00000       Uiso       1.00
     xx131          F  0.6911600  0.9633700  0.4999000    0.00000       Uiso       1.00
     xx132          F  0.7499800  0.9504299  0.3394500    0.00000       Uiso       1.00
     xx133          F  0.7035200  0.8781701  0.4306000    0.00000       Uiso       1.00
     xx134          H  0.6036500  0.3931600  0.6722001    0.00000       Uiso       1.00
     xx135          H  0.3939600  0.3940000  0.3230700    0.00000       Uiso       1.00
     xx136          N  0.4357100  0.9357100  0.9598600    0.00000       Uiso       1.00
     xx137          N  0.5642600  0.9356600  0.0321000    0.00000       Uiso       1.00
     xx138          C  0.4634000  0.0366000  0.2111500    0.00000       Uiso       1.00
     xx139          C  0.4634000  0.9634000  0.7777600    0.00000       Uiso       1.00
     xx140          C  0.4634000  0.0366000  0.3237500    0.00000       Uiso       1.00
     xx141          C  0.4634000  0.9634000  0.6651600    0.00000       Uiso       1.00
     xx142          C  0.4284800  0.0727900  0.1390600    0.00000       Uiso       1.00
     xx143          C  0.4277200  0.9277300  0.8532700    0.00000       Uiso       1.00
     xx144          C  0.5957300  0.0950800  0.0437900    0.00000       Uiso       1.00
     xx145          C  0.4047000  0.0953000  0.9478600    0.00000       Uiso       1.00
     xx146          C  0.3728200  0.0707000  0.8603200    0.00000       Uiso       1.00
     xx147          C  0.4063300  0.1505600  0.9544500    0.00000       Uiso       1.00
     xx148          C  0.4069400  0.8506700  0.0309900    0.00000       Uiso       1.00
     xx149          C  0.3734200  0.9305300  0.1252200    0.00000       Uiso       1.00
     xx150          H  0.4325100  0.0674900  0.3702400    0.00000       Uiso       1.00
     xx151          H  0.4360300  0.9360300  0.6239700    0.00000       Uiso       1.00
     xx152          H  0.3715400  0.0254300  0.8547900    0.00000       Uiso       1.00
     xx153          H  0.4325700  0.1707700  0.0261700    0.00000       Uiso       1.00
     xx154          H  0.4331500  0.8327900  0.9566800    0.00000       Uiso       1.00
     xx155          H  0.3726500  0.9758800  0.1266900    0.00000       Uiso       1.00
     xx156          B  0.7353200  0.4285200  0.9434700    0.00000       Uiso       1.00
     xx157          F  0.7961500  0.4224000  1.0038300    0.00000       Uiso       1.00
     xx158          F  0.6911600  0.4633700  0.9999000    0.00000       Uiso       1.00
     xx159          F  0.7499800  0.4504300  0.8394500    0.00000       Uiso       1.00
     xx160          F  0.7035200  0.3781700  0.9306000    0.00000       Uiso       1.00
     xx161          H  0.6036500  0.8931600  0.1722000    0.00000       Uiso       1.00
     xx162          H  0.3939600  0.8940000  0.8230700    0.00000       Uiso       1.00
     xx163          N  0.9357100  0.4357100  0.9598600    0.00000       Uiso       1.00
     xx164          N  0.0642600  0.4356600  0.0321000    0.00000       Uiso       1.00
     xx165          C  0.9633999  0.5366000  0.2111500    0.00000       Uiso       1.00
     xx166          C  0.9633999  0.4634000  0.7777600    0.00000       Uiso       1.00
     xx167          C  0.9633999  0.5366000  0.3237500    0.00000       Uiso       1.00
     xx168          C  0.9633999  0.4634000  0.6651600    0.00000       Uiso       1.00
     xx169          C  0.9284800  0.5727900  0.1390600    0.00000       Uiso       1.00
     xx170          C  0.9277200  0.4277300  0.8532700    0.00000       Uiso       1.00
     xx171          C  0.0957300  0.5950800  0.0437900    0.00000       Uiso       1.00
     xx172          C  0.9047000  0.5953000  0.9478600    0.00000       Uiso       1.00
     xx173          C  0.8728200  0.5707000  0.8603200    0.00000       Uiso       1.00
     xx174          C  0.9063299  0.6505600  0.9544500    0.00000       Uiso       1.00
     xx175          C  0.9069400  0.3506700  0.0309900    0.00000       Uiso       1.00
     xx176          C  0.8734200  0.4305300  0.1252200    0.00000       Uiso       1.00
     xx177          H  0.9325100  0.5674900  0.3702400    0.00000       Uiso       1.00
     xx178          H  0.9360300  0.4360300  0.6239700    0.00000       Uiso       1.00
     xx179          H  0.8715400  0.5254300  0.8547900    0.00000       Uiso       1.00
     xx180          H  0.9325700  0.6707700  0.0261700    0.00000       Uiso       1.00
     xx181          H  0.9331500  0.3327900  0.9566800    0.00000       Uiso       1.00
     xx182          H  0.8726501  0.4758800  0.1266900    0.00000       Uiso       1.00
     xx183          B  0.2353200  0.9285200  0.9434700    0.00000       Uiso       1.00
     xx184          F  0.2961500  0.9224000  1.0038300    0.00000       Uiso       1.00
     xx185          F  0.1911600  0.9633700  0.9999000    0.00000       Uiso       1.00
     xx186          F  0.2499800  0.9504299  0.8394500    0.00000       Uiso       1.00
     xx187          F  0.2035200  0.8781701  0.9306000    0.00000       Uiso       1.00
     xx188          H  0.1036500  0.3931600  0.1722000    0.00000       Uiso       1.00
     xx189          H  0.8939601  0.3940000  0.8230700    0.00000       Uiso       1.00
     xx190          N  0.9357100  0.9357100  0.4598600    0.00000       Uiso       1.00
     xx191          N  0.0642600  0.9356600  0.5321000    0.00000       Uiso       1.00
     xx192          C  0.9633999  0.0366000  0.7111499    0.00000       Uiso       1.00
     xx193          C  0.9633999  0.9634000  0.2777600    0.00000       Uiso       1.00
     xx194          C  0.9633999  0.0366000  0.8237500    0.00000       Uiso       1.00
     xx195          C  0.9633999  0.9634000  0.1651600    0.00000       Uiso       1.00
     xx196          C  0.9284800  0.0727900  0.6390600    0.00000       Uiso       1.00
     xx197          C  0.9277200  0.9277300  0.3532700    0.00000       Uiso       1.00
     xx198          C  0.0957300  0.0950800  0.5437900    0.00000       Uiso       1.00
     xx199          C  0.9047000  0.0953000  0.4478600    0.00000       Uiso       1.00
     xx200          C  0.8728200  0.0707000  0.3603200    0.00000       Uiso       1.00
     xx201          C  0.9063299  0.1505600  0.4544500    0.00000       Uiso       1.00
     xx202          C  0.9069400  0.8506700  0.5309900    0.00000       Uiso       1.00
     xx203          C  0.8734200  0.9305300  0.6252200    0.00000       Uiso       1.00
     xx204          H  0.9325100  0.0674900  0.8702400    0.00000       Uiso       1.00
     xx205          H  0.9360300  0.9360300  0.1239700    0.00000       Uiso       1.00
     xx206          H  0.8715400  0.0254300  0.3547900    0.00000       Uiso       1.00
     xx207          H  0.9325700  0.1707700  0.5261700    0.00000       Uiso       1.00
     xx208          H  0.9331500  0.8327900  0.4566800    0.00000       Uiso       1.00
     xx209          H  0.8726501  0.9758800  0.6266900    0.00000       Uiso       1.00
     xx210          B  0.2353200  0.4285200  0.4434700    0.00000       Uiso       1.00
     xx211          F  0.2961500  0.4224000  0.5038300    0.00000       Uiso       1.00
     xx212          F  0.1911600  0.4633700  0.4999000    0.00000       Uiso       1.00
     xx213          F  0.2499800  0.4504300  0.3394500    0.00000       Uiso       1.00
     xx214          F  0.2035200  0.3781700  0.4306000    0.00000       Uiso       1.00
     xx215          H  0.1036500  0.8931600  0.6722001    0.00000       Uiso       1.00
     xx216          H  0.8939601  0.8940000  0.3230700    0.00000       Uiso       1.00
     xx217          N  0.8142900  0.6857100  0.7098600    0.00000       Uiso       1.00
     xx218          N  0.6857400  0.6856600  0.7821000    0.00000       Uiso       1.00
     xx219          C  0.7866000  0.7866000  0.9611500    0.00000       Uiso       1.00
     xx220          C  0.7866000  0.7134001  0.5277600    0.00000       Uiso       1.00
     xx221          C  0.7866000  0.7866000  0.0737500    0.00000       Uiso       1.00
     xx222          C  0.7866000  0.7134001  0.4151600    0.00000       Uiso       1.00
     xx223          C  0.8215200  0.8227900  0.8890600    0.00000       Uiso       1.00
     xx224          C  0.8222799  0.6777300  0.6032700    0.00000       Uiso       1.00
     xx225          C  0.6542700  0.8450800  0.7937900    0.00000       Uiso       1.00
     xx226          C  0.8453001  0.8453000  0.6978600    0.00000       Uiso       1.00
     xx227          C  0.8771800  0.8207000  0.6103200    0.00000       Uiso       1.00
     xx228          C  0.8436700  0.9005601  0.7044500    0.00000       Uiso       1.00
     xx229          C  0.8430600  0.6006700  0.7809901    0.00000       Uiso       1.00
     xx230          C  0.8765799  0.6805300  0.8752200    0.00000       Uiso       1.00
     xx231          H  0.8174900  0.8174899  0.1202400    0.00000       Uiso       1.00
     xx232          H  0.8139700  0.6860300  0.3739700    0.00000       Uiso       1.00
     xx233          H  0.8784599  0.7754300  0.6047900    0.00000       Uiso       1.00
     xx234          H  0.8174301  0.9207700  0.7761701    0.00000       Uiso       1.00
     xx235          H  0.8168500  0.5827900  0.7066800    0.00000       Uiso       1.00
     xx236          H  0.8773500  0.7258800  0.8766900    0.00000       Uiso       1.00
     xx237          B  0.5146800  0.1785200  0.6934701    0.00000       Uiso       1.00
     xx238          F  0.4538500  0.1724000  0.7538300    0.00000       Uiso       1.00
     xx239          F  0.5588400  0.2133700  0.7498999    0.00000       Uiso       1.00
     xx240          F  0.5000200  0.2004300  0.5894500    0.00000       Uiso       1.00
     xx241          F  0.5464800  0.1281700  0.6806000    0.00000       Uiso       1.00
     xx242          H  0.6463500  0.6431600  0.9222000    0.00000       Uiso       1.00
     xx243          H  0.8560400  0.6440000  0.5730700    0.00000       Uiso       1.00
     xx244          N  0.8142900  0.1857100  0.2098600    0.00000       Uiso       1.00
     xx245          N  0.6857400  0.1856600  0.2821000    0.00000       Uiso       1.00
     xx246          C  0.7866000  0.2866000  0.4611500    0.00000       Uiso       1.00
     xx247          C  0.7866000  0.2134000  0.0277600    0.00000       Uiso       1.00
     xx248          C  0.7866000  0.2866000  0.5737500    0.00000       Uiso       1.00
     xx249          C  0.7866000  0.2134000  0.9151600    0.00000       Uiso       1.00
     xx250          C  0.8215200  0.3227900  0.3890600    0.00000       Uiso       1.00
     xx251          C  0.8222799  0.1777300  0.1032700    0.00000       Uiso       1.00
     xx252          C  0.6542700  0.3450800  0.2937900    0.00000       Uiso       1.00
     xx253          C  0.8453001  0.3453000  0.1978600    0.00000       Uiso       1.00
     xx254          C  0.8771800  0.3207000  0.1103200    0.00000       Uiso       1.00
     xx255          C  0.8436700  0.4005600  0.2044500    0.00000       Uiso       1.00
     xx256          C  0.8430600  0.1006700  0.2809900    0.00000       Uiso       1.00
     xx257          C  0.8765799  0.1805300  0.3752200    0.00000       Uiso       1.00
     xx258          H  0.8174900  0.3174900  0.6202400    0.00000       Uiso       1.00
     xx259          H  0.8139700  0.1860300  0.8739699    0.00000       Uiso       1.00
     xx260          H  0.8784599  0.2754300  0.1047900    0.00000       Uiso       1.00
     xx261          H  0.8174301  0.4207700  0.2761700    0.00000       Uiso       1.00
     xx262          H  0.8168500  0.0827900  0.2066800    0.00000       Uiso       1.00
     xx263          H  0.8773500  0.2258800  0.3766900    0.00000       Uiso       1.00
     xx264          B  0.5146800  0.6785200  0.1934700    0.00000       Uiso       1.00
     xx265          F  0.4538500  0.6724000  0.2538300    0.00000       Uiso       1.00
     xx266          F  0.5588400  0.7133700  0.2499000    0.00000       Uiso       1.00
     xx267          F  0.5000200  0.7004300  0.0894500    0.00000       Uiso       1.00
     xx268          F  0.5464800  0.6281700  0.1806000    0.00000       Uiso       1.00
     xx269          H  0.6463500  0.1431600  0.4222000    0.00000       Uiso       1.00
     xx270          H  0.8560400  0.1440000  0.0730700    0.00000       Uiso       1.00
     xx271          N  0.3142900  0.6857100  0.2098600    0.00000       Uiso       1.00
     xx272          N  0.1857400  0.6856600  0.2821000    0.00000       Uiso       1.00
     xx273          C  0.2866000  0.7866000  0.4611500    0.00000       Uiso       1.00
     xx274          C  0.2866000  0.7134001  0.0277600    0.00000       Uiso       1.00
     xx275          C  0.2866000  0.7866000  0.5737500    0.00000       Uiso       1.00
     xx276          C  0.2866000  0.7134001  0.9151600    0.00000       Uiso       1.00
     xx277          C  0.3215200  0.8227900  0.3890600    0.00000       Uiso       1.00
     xx278          C  0.3222800  0.6777300  0.1032700    0.00000       Uiso       1.00
     xx279          C  0.1542700  0.8450800  0.2937900    0.00000       Uiso       1.00
     xx280          C  0.3453000  0.8453000  0.1978600    0.00000       Uiso       1.00
     xx281          C  0.3771800  0.8207000  0.1103200    0.00000       Uiso       1.00
     xx282          C  0.3436700  0.9005601  0.2044500    0.00000       Uiso       1.00
     xx283          C  0.3430600  0.6006700  0.2809900    0.00000       Uiso       1.00
     xx284          C  0.3765800  0.6805300  0.3752200    0.00000       Uiso       1.00
     xx285          H  0.3174900  0.8174899  0.6202400    0.00000       Uiso       1.00
     xx286          H  0.3139700  0.6860300  0.8739699    0.00000       Uiso       1.00
     xx287          H  0.3784600  0.7754300  0.1047900    0.00000       Uiso       1.00
     xx288          H  0.3174300  0.9207700  0.2761700    0.00000       Uiso       1.00
     xx289          H  0.3168500  0.5827900  0.2066800    0.00000       Uiso       1.00
     xx290          H  0.3773500  0.7258800  0.3766900    0.00000       Uiso       1.00
     xx291          B  0.0146800  0.1785200  0.1934700    0.00000       Uiso       1.00
     xx292          F -0.0461500  0.1724000  0.2538300    0.00000       Uiso       1.00
     xx293          F  0.0588400  0.2133700  0.2499000    0.00000       Uiso       1.00
     xx294          F  0.0000200  0.2004300  0.0894500    0.00000       Uiso       1.00
     xx295          F  0.0464800  0.1281700  0.1806000    0.00000       Uiso       1.00
     xx296          H  0.1463500  0.6431600  0.4222000    0.00000       Uiso       1.00
     xx297          H  0.3560400  0.6440000  0.0730700    0.00000       Uiso       1.00
     xx298          N  0.3142900  0.1857100  0.7098600    0.00000       Uiso       1.00
     xx299          N  0.1857400  0.1856600  0.7821000    0.00000       Uiso       1.00
     xx300          C  0.2866000  0.2866000  0.9611500    0.00000       Uiso       1.00
     xx301          C  0.2866000  0.2134000  0.5277600    0.00000       Uiso       1.00
     xx302          C  0.2866000  0.2866000  0.0737500    0.00000       Uiso       1.00
     xx303          C  0.2866000  0.2134000  0.4151600    0.00000       Uiso       1.00
     xx304          C  0.3215200  0.3227900  0.8890600    0.00000       Uiso       1.00
     xx305          C  0.3222800  0.1777300  0.6032700    0.00000       Uiso       1.00
     xx306          C  0.1542700  0.3450800  0.7937900    0.00000       Uiso       1.00
     xx307          C  0.3453000  0.3453000  0.6978600    0.00000       Uiso       1.00
     xx308          C  0.3771800  0.3207000  0.6103200    0.00000       Uiso       1.00
     xx309          C  0.3436700  0.4005600  0.7044500    0.00000       Uiso       1.00
     xx310          C  0.3430600  0.1006700  0.7809901    0.00000       Uiso       1.00
     xx311          C  0.3765800  0.1805300  0.8752200    0.00000       Uiso       1.00
     xx312          H  0.3174900  0.3174900  0.1202400    0.00000       Uiso       1.00
     xx313          H  0.3139700  0.1860300  0.3739700    0.00000       Uiso       1.00
     xx314          H  0.3784600  0.2754300  0.6047900    0.00000       Uiso       1.00
     xx315          H  0.3174300  0.4207700  0.7761701    0.00000       Uiso       1.00
     xx316          H  0.3168500  0.0827900  0.7066800    0.00000       Uiso       1.00
     xx317          H  0.3773500  0.2258800  0.8766900    0.00000       Uiso       1.00
     xx318          B  0.0146800  0.6785200  0.6934701    0.00000       Uiso       1.00
     xx319          F -0.0461500  0.6724000  0.7538300    0.00000       Uiso       1.00
     xx320          F  0.0588400  0.7133700  0.7498999    0.00000       Uiso       1.00
     xx321          F  0.0000200  0.7004300  0.5894500    0.00000       Uiso       1.00
     xx322          F  0.0464800  0.6281700  0.6806000    0.00000       Uiso       1.00
     xx323          H  0.1463500  0.1431600  0.9222000    0.00000       Uiso       1.00
     xx324          H  0.3560400  0.1440000  0.5730700    0.00000       Uiso       1.00
     xx325          N  0.6857100  0.8142900  0.7098600    0.00000       Uiso       1.00
     xx326          N  0.8142599  0.8143400  0.7821000    0.00000       Uiso       1.00
     xx327          C  0.7134000  0.7134001  0.9611500    0.00000       Uiso       1.00
     xx328          C  0.7134000  0.7866000  0.5277600    0.00000       Uiso       1.00
     xx329          C  0.7134000  0.7134001  0.0737500    0.00000       Uiso       1.00
     xx330          C  0.7134000  0.7866000  0.4151600    0.00000       Uiso       1.00
     xx331          C  0.6784800  0.6772099  0.8890600    0.00000       Uiso       1.00
     xx332          C  0.6777200  0.8222700  0.6032700    0.00000       Uiso       1.00
     xx333          C  0.8457300  0.6549199  0.7937900    0.00000       Uiso       1.00
     xx334          C  0.6547000  0.6547000  0.6978600    0.00000       Uiso       1.00
     xx335          C  0.6228200  0.6793001  0.6103200    0.00000       Uiso       1.00
     xx336          C  0.6563300  0.5994400  0.7044500    0.00000       Uiso       1.00
     xx337          C  0.6569400  0.8993300  0.7809901    0.00000       Uiso       1.00
     xx338          C  0.6234200  0.8194700  0.8752200    0.00000       Uiso       1.00
     xx339          H  0.6825100  0.6825100  0.1202400    0.00000       Uiso       1.00
     xx340          H  0.6860300  0.8139700  0.3739700    0.00000       Uiso       1.00
     xx341          H  0.6215400  0.7245700  0.6047900    0.00000       Uiso       1.00
     xx342          H  0.6825700  0.5792300  0.7761701    0.00000       Uiso       1.00
     xx343          H  0.6831500  0.9172099  0.7066800    0.00000       Uiso       1.00
     xx344          H  0.6226500  0.7741200  0.8766900    0.00000       Uiso       1.00
     xx345          B  0.9853200  0.3214800  0.6934701    0.00000       Uiso       1.00
     xx346          F  1.0461500  0.3276000  0.7538300    0.00000       Uiso       1.00
     xx347          F  0.9411600  0.2866300  0.7498999    0.00000       Uiso       1.00
     xx348          F  0.9999800  0.2995700  0.5894500    0.00000       Uiso       1.00
     xx349          F  0.9535200  0.3718300  0.6806000    0.00000       Uiso       1.00
     xx350          H  0.8536500  0.8568400  0.9222000    0.00000       Uiso       1.00
     xx351          H  0.6439600  0.8560000  0.5730700    0.00000       Uiso       1.00
     xx352          N  0.6857100  0.3142900  0.2098600    0.00000       Uiso       1.00
     xx353          N  0.8142599  0.3143400  0.2821000    0.00000       Uiso       1.00
     xx354          C  0.7134000  0.2134000  0.4611500    0.00000       Uiso       1.00
     xx355          C  0.7134000  0.2866000  0.0277600    0.00000       Uiso       1.00
     xx356          C  0.7134000  0.2134000  0.5737500    0.00000       Uiso       1.00
     xx357          C  0.7134000  0.2866000  0.9151600    0.00000       Uiso       1.00
     xx358          C  0.6784800  0.1772100  0.3890600    0.00000       Uiso       1.00
     xx359          C  0.6777200  0.3222700  0.1032700    0.00000       Uiso       1.00
     xx360          C  0.8457300  0.1549200  0.2937900    0.00000       Uiso       1.00
     xx361          C  0.6547000  0.1547000  0.1978600    0.00000       Uiso       1.00
     xx362          C  0.6228200  0.1793000  0.1103200    0.00000       Uiso       1.00
     xx363          C  0.6563300  0.0994400  0.2044500    0.00000       Uiso       1.00
     xx364          C  0.6569400  0.3993300  0.2809900    0.00000       Uiso       1.00
     xx365          C  0.6234200  0.3194700  0.3752200    0.00000       Uiso       1.00
     xx366          H  0.6825100  0.1825100  0.6202400    0.00000       Uiso       1.00
     xx367          H  0.6860300  0.3139700  0.8739699    0.00000       Uiso       1.00
     xx368          H  0.6215400  0.2245700  0.1047900    0.00000       Uiso       1.00
     xx369          H  0.6825700  0.0792300  0.2761700    0.00000       Uiso       1.00
     xx370          H  0.6831500  0.4172100  0.2066800    0.00000       Uiso       1.00
     xx371          H  0.6226500  0.2741200  0.3766900    0.00000       Uiso       1.00
     xx372          B  0.9853200  0.8214800  0.1934700    0.00000       Uiso       1.00
     xx373          F  1.0461500  0.8275999  0.2538300    0.00000       Uiso       1.00
     xx374          F  0.9411600  0.7866299  0.2499000    0.00000       Uiso       1.00
     xx375          F  0.9999800  0.7995700  0.0894500    0.00000       Uiso       1.00
     xx376          F  0.9535200  0.8718300  0.1806000    0.00000       Uiso       1.00
     xx377          H  0.8536500  0.3568400  0.4222000    0.00000       Uiso       1.00
     xx378          H  0.6439600  0.3560000  0.0730700    0.00000       Uiso       1.00
     xx379          N  0.1857100  0.8142900  0.2098600    0.00000       Uiso       1.00
     xx380          N  0.3142600  0.8143400  0.2821000    0.00000       Uiso       1.00
     xx381          C  0.2134000  0.7134001  0.4611500    0.00000       Uiso       1.00
     xx382          C  0.2134000  0.7866000  0.0277600    0.00000       Uiso       1.00
     xx383          C  0.2134000  0.7134001  0.5737500    0.00000       Uiso       1.00
     xx384          C  0.2134000  0.7866000  0.9151600    0.00000       Uiso       1.00
     xx385          C  0.1784800  0.6772099  0.3890600    0.00000       Uiso       1.00
     xx386          C  0.1777200  0.8222700  0.1032700    0.00000       Uiso       1.00
     xx387          C  0.3457300  0.6549199  0.2937900    0.00000       Uiso       1.00
     xx388          C  0.1547000  0.6547000  0.1978600    0.00000       Uiso       1.00
     xx389          C  0.1228200  0.6793001  0.1103200    0.00000       Uiso       1.00
     xx390          C  0.1563300  0.5994400  0.2044500    0.00000       Uiso       1.00
     xx391          C  0.1569400  0.8993300  0.2809900    0.00000       Uiso       1.00
     xx392          C  0.1234200  0.8194700  0.3752200    0.00000       Uiso       1.00
     xx393          H  0.1825100  0.6825100  0.6202400    0.00000       Uiso       1.00
     xx394          H  0.1860300  0.8139700  0.8739699    0.00000       Uiso       1.00
     xx395          H  0.1215400  0.7245700  0.1047900    0.00000       Uiso       1.00
     xx396          H  0.1825700  0.5792300  0.2761700    0.00000       Uiso       1.00
     xx397          H  0.1831500  0.9172099  0.2066800    0.00000       Uiso       1.00
     xx398          H  0.1226500  0.7741200  0.3766900    0.00000       Uiso       1.00
     xx399          B  0.4853200  0.3214800  0.1934700    0.00000       Uiso       1.00
     xx400          F  0.5461500  0.3276000  0.2538300    0.00000       Uiso       1.00
     xx401          F  0.4411600  0.2866300  0.2499000    0.00000       Uiso       1.00
     xx402          F  0.4999800  0.2995700  0.0894500    0.00000       Uiso       1.00
     xx403          F  0.4535200  0.3718300  0.1806000    0.00000       Uiso       1.00
     xx404          H  0.3536500  0.8568400  0.4222000    0.00000       Uiso       1.00
     xx405          H  0.1439600  0.8560000  0.0730700    0.00000       Uiso       1.00
     xx406          N  0.1857100  0.3142900  0.7098600    0.00000       Uiso       1.00
     xx407          N  0.3142600  0.3143400  0.7821000    0.00000       Uiso       1.00
     xx408          C  0.2134000  0.2134000  0.9611500    0.00000       Uiso       1.00
     xx409          C  0.2134000  0.2866000  0.5277600    0.00000       Uiso       1.00
     xx410          C  0.2134000  0.2134000  0.0737500    0.00000       Uiso       1.00
     xx411          C  0.2134000  0.2866000  0.4151600    0.00000       Uiso       1.00
     xx412          C  0.1784800  0.1772100  0.8890600    0.00000       Uiso       1.00
     xx413          C  0.1777200  0.3222700  0.6032700    0.00000       Uiso       1.00
     xx414          C  0.3457300  0.1549200  0.7937900    0.00000       Uiso       1.00
     xx415          C  0.1547000  0.1547000  0.6978600    0.00000       Uiso       1.00
     xx416          C  0.1228200  0.1793000  0.6103200    0.00000       Uiso       1.00
     xx417          C  0.1563300  0.0994400  0.7044500    0.00000       Uiso       1.00
     xx418          C  0.1569400  0.3993300  0.7809901    0.00000       Uiso       1.00
     xx419          C  0.1234200  0.3194700  0.8752200    0.00000       Uiso       1.00
     xx420          H  0.1825100  0.1825100  0.1202400    0.00000       Uiso       1.00
     xx421          H  0.1860300  0.3139700  0.3739700    0.00000       Uiso       1.00
     xx422          H  0.1215400  0.2245700  0.6047900    0.00000       Uiso       1.00
     xx423          H  0.1825700  0.0792300  0.7761701    0.00000       Uiso       1.00
     xx424          H  0.1831500  0.4172100  0.7066800    0.00000       Uiso       1.00
     xx425          H  0.1226500  0.2741200  0.8766900    0.00000       Uiso       1.00
     xx426          B  0.4853200  0.8214800  0.6934701    0.00000       Uiso       1.00
     xx427          F  0.5461500  0.8275999  0.7538300    0.00000       Uiso       1.00
     xx428          F  0.4411600  0.7866299  0.7498999    0.00000       Uiso       1.00
     xx429          F  0.4999800  0.7995700  0.5894500    0.00000       Uiso       1.00
     xx430          F  0.4535200  0.8718300  0.6806000    0.00000       Uiso       1.00
     xx431          H  0.3536500  0.3568400  0.9222000    0.00000       Uiso       1.00
     xx432          H  0.1439600  0.3560000  0.5730700    0.00000       Uiso       1.00
     xx433         Co  0.5000000  0.5000000  0.4958600    0.00000       Uiso       1.00
     xx434          N  0.5000000  0.5000000  0.6559500    0.00000       Uiso       1.00
     xx435          N  0.5000000  0.5000000  0.3328600    0.00000       Uiso       1.00
     xx436          C  0.5000000  0.5000000  0.1075600    0.00000       Uiso       1.00
     xx437          C  0.5000000  0.5000000  0.8813500    0.00000       Uiso       1.00
     xx438          H  0.5000000  0.5000000  0.0341500    0.00000       Uiso       1.00
     xx439          H  0.5000000  0.5000000  0.9547600    0.00000       Uiso       1.00
     xx440         Co  0.5000000  0.0000000  0.9958599    0.00000       Uiso       1.00
     xx441          N  0.5000000  0.0000000  0.1559500    0.00000       Uiso       1.00
     xx442          N  0.5000000  0.0000000  0.8328600    0.00000       Uiso       1.00
     xx443          C  0.5000000  0.0000000  0.6075600    0.00000       Uiso       1.00
     xx444          C  0.5000000  0.0000000  0.3813500    0.00000       Uiso       1.00
     xx445          H  0.5000000  0.0000000  0.5341500    0.00000       Uiso       1.00
     xx446          H  0.5000000  0.0000000  0.4547600    0.00000       Uiso       1.00
     xx447         Co  0.0000000  0.5000000  0.9958599    0.00000       Uiso       1.00
     xx448          N  0.0000000  0.5000000  0.1559500    0.00000       Uiso       1.00
     xx449          N  0.0000000  0.5000000  0.8328600    0.00000       Uiso       1.00
     xx450          C  0.0000000  0.5000000  0.6075600    0.00000       Uiso       1.00
     xx451          C  0.0000000  0.5000000  0.3813500    0.00000       Uiso       1.00
     xx452          H  0.0000000  0.5000000  0.5341500    0.00000       Uiso       1.00
     xx453          H  0.0000000  0.5000000  0.4547600    0.00000       Uiso       1.00
     xx454         Co  0.0000000  0.0000000  0.4958600    0.00000       Uiso       1.00
     xx455          N  0.0000000  0.0000000  0.6559500    0.00000       Uiso       1.00
     xx456          N  0.0000000  0.0000000  0.3328600    0.00000       Uiso       1.00
     xx457          C  0.0000000  0.0000000  0.1075600    0.00000       Uiso       1.00
     xx458          C  0.0000000  0.0000000  0.8813500    0.00000       Uiso       1.00
     xx459          H  0.0000000  0.0000000  0.0341500    0.00000       Uiso       1.00
     xx460          H  0.0000000  0.0000000  0.9547600    0.00000       Uiso       1.00
     xx461         Co  0.7500000  0.7500000  0.7458600    0.00000       Uiso       1.00
     xx462          N  0.7500000  0.7500000  0.9059500    0.00000       Uiso       1.00
     xx463          N  0.7500000  0.7500000  0.5828600    0.00000       Uiso       1.00
     xx464          C  0.7500000  0.7500000  0.3575600    0.00000       Uiso       1.00
     xx465          C  0.7500000  0.7500000  0.1313500    0.00000       Uiso       1.00
     xx466          H  0.7500000  0.7500000  0.2841500    0.00000       Uiso       1.00
     xx467          H  0.7500000  0.7500000  0.2047600    0.00000       Uiso       1.00
     xx468         Co  0.7500000  0.2500000  0.2458600    0.00000       Uiso       1.00
     xx469          N  0.7500000  0.2500000  0.4059500    0.00000       Uiso       1.00
     xx470          N  0.7500000  0.2500000  0.0828600    0.00000       Uiso       1.00
     xx471          C  0.7500000  0.2500000  0.8575600    0.00000       Uiso       1.00
     xx472          C  0.7500000  0.2500000  0.6313500    0.00000       Uiso       1.00
     xx473          H  0.7500000  0.2500000  0.7841500    0.00000       Uiso       1.00
     xx474          H  0.7500000  0.2500000  0.7047600    0.00000       Uiso       1.00
     xx475         Co  0.2500000  0.7500000  0.2458600    0.00000       Uiso       1.00
     xx476          N  0.2500000  0.7500000  0.4059500    0.00000       Uiso       1.00
     xx477          N  0.2500000  0.7500000  0.0828600    0.00000       Uiso       1.00
     xx478          C  0.2500000  0.7500000  0.8575600    0.00000       Uiso       1.00
     xx479          C  0.2500000  0.7500000  0.6313500    0.00000       Uiso       1.00
     xx480          H  0.2500000  0.7500000  0.7841500    0.00000       Uiso       1.00
     xx481          H  0.2500000  0.7500000  0.7047600    0.00000       Uiso       1.00
     xx482         Co  0.2500000  0.2500000  0.7458600    0.00000       Uiso       1.00
     xx483          N  0.2500000  0.2500000  0.9059500    0.00000       Uiso       1.00
     xx484          N  0.2500000  0.2500000  0.5828600    0.00000       Uiso       1.00
     xx485          C  0.2500000  0.2500000  0.3575600    0.00000       Uiso       1.00
     xx486          C  0.2500000  0.2500000  0.1313500    0.00000       Uiso       1.00
     xx487          H  0.2500000  0.2500000  0.2841500    0.00000       Uiso       1.00
     xx488          H  0.2500000  0.2500000  0.2047600    0.00000       Uiso       1.00
