data_COF-11A
_audit_creation_date              0000-00-00
_audit_creation_method            'LanYouShi'
_symmetry_space_group_name_H-M    'P1'
_cell_length_a                    21.4895992
_cell_length_b                    21.4895992
_cell_length_c                    4.1571999
_cell_angle_alpha                 90.0000000
_cell_angle_beta                  90.0000000
_cell_angle_gamma                 120.0000000
loop_
_atom_site_label
_atom_site_type_symbol
_atom_site_fract_x
_atom_site_fract_y
_atom_site_fract_z
_atom_site_U_iso_or_equiv
_atom_site_adp_type
_atom_site_occupancy
        C1          C  0.5684520  0.0006220  0.4999980    0.00000       Uiso       1.00
        C2          C  0.9993790  0.5678300  0.4999980    0.00000       Uiso       1.00
        C3          C  0.4321710  0.4315500  0.4999980    0.00000       Uiso       1.00
        C4          C  0.4315500  0.9993790  0.4999980    0.00000       Uiso       1.00
        C5          C  0.0006220  0.4321710  0.4999980    0.00000       Uiso       1.00
        C6          C  0.5678300  0.5684520  0.4999980    0.00000       Uiso       1.00
        C7          C  0.5642890  0.0641970  0.4999980    0.00000       Uiso       1.00
        C8          C  0.9358040  0.5000920  0.4999980    0.00000       Uiso       1.00
        C9          C  0.4999090  0.4357120  0.4999980    0.00000       Uiso       1.00
       C10          C  0.4357120  0.9358040  0.4999980    0.00000       Uiso       1.00
       C11          C  0.0641970  0.4999090  0.4999980    0.00000       Uiso       1.00
       C12          C  0.5000920  0.5642890  0.4999980    0.00000       Uiso       1.00
       O13          O  0.6205480  0.1320480  0.4999980    0.00000       Uiso       1.00
       O14          O  0.8679530  0.4885000  0.4999980    0.00000       Uiso       1.00
       O15          O  0.5115010  0.3794530  0.4999980    0.00000       Uiso       1.00
       O16          O  0.3794530  0.8679529  0.4999980    0.00000       Uiso       1.00
       O17          O  0.1320480  0.5115010  0.4999980    0.00000       Uiso       1.00
       O18          O  0.4885000  0.6205480  0.4999980    0.00000       Uiso       1.00
       C19          C  0.0639920  0.5652880  0.4999980    0.00000       Uiso       1.00
       C20          C  0.4347130  0.4987050  0.4999980    0.00000       Uiso       1.00
       C21          C  0.5012960  0.9360090  0.4999980    0.00000       Uiso       1.00
       C22          C  0.9360090  0.4347130  0.4999980    0.00000       Uiso       1.00
       C23          C  0.5652880  0.5012960  0.4999980    0.00000       Uiso       1.00
       C24          C  0.4987050  0.0639920  0.4999980    0.00000       Uiso       1.00
       O25          O  0.1323200  0.6207320  0.4999980    0.00000       Uiso       1.00
       O26          O  0.3792690  0.5115890  0.4999980    0.00000       Uiso       1.00
       O27          O  0.4884120  0.8676811  0.4999980    0.00000       Uiso       1.00
       O28          O  0.8676810  0.3792690  0.4999980    0.00000       Uiso       1.00
       O29          O  0.6207320  0.4884120  0.4999980    0.00000       Uiso       1.00
       O30          O  0.5115890  0.1323200  0.4999980    0.00000       Uiso       1.00
       C31          C  0.6285940  0.2570950  0.4999980    0.00000       Uiso       1.00
       C32          C  0.7429060  0.3714990  0.4999980    0.00000       Uiso       1.00
       C33          C  0.6285020  0.3714070  0.4999980    0.00000       Uiso       1.00
       C34          C  0.3714070  0.7429060  0.4999980    0.00000       Uiso       1.00
       C35          C  0.2570950  0.6285020  0.4999980    0.00000       Uiso       1.00
       C36          C  0.3714990  0.6285940  0.4999980    0.00000       Uiso       1.00
       B37          B  0.5885980  0.1770580  0.4999980    0.00000       Uiso       1.00
       B38          B  0.8229430  0.4115390  0.4999980    0.00000       Uiso       1.00
       B39          B  0.5884620  0.4114040  0.4999980    0.00000       Uiso       1.00
       B40          B  0.4114040  0.8229430  0.4999980    0.00000       Uiso       1.00
       B41          B  0.1770580  0.5884620  0.4999980    0.00000       Uiso       1.00
       B42          B  0.4115390  0.5885980  0.4999980    0.00000       Uiso       1.00
       C43          C  0.2956120  0.5911440  0.4999980    0.00000       Uiso       1.00
       C44          C  0.4088570  0.7044690  0.4999980    0.00000       Uiso       1.00
       C45          C  0.2955320  0.7043890  0.4999980    0.00000       Uiso       1.00
       C46          C  0.7043890  0.4088570  0.4999980    0.00000       Uiso       1.00
       C47          C  0.5911440  0.2955320  0.4999980    0.00000       Uiso       1.00
       C48          C  0.7044690  0.2956120  0.4999980    0.00000       Uiso       1.00
       H49          H  0.4640760  0.7320840  0.4999980    0.00000       Uiso       1.00
       H50          H  0.2679180  0.7319940  0.4999980    0.00000       Uiso       1.00
       H51          H  0.2680070  0.5359250  0.4999980    0.00000       Uiso       1.00
       H52          H  0.5359250  0.2679180  0.4999980    0.00000       Uiso       1.00
       H53          H  0.7320840  0.2680070  0.4999980    0.00000       Uiso       1.00
       H54          H  0.7319940  0.4640760  0.4999980    0.00000       Uiso       1.00
       H55          H  0.6313770  0.6700080  0.2894590    0.00000       Uiso       1.00
       H56          H  0.3299930  0.9613699  0.2894590    0.00000       Uiso       1.00
       H57          H  0.0386320  0.3686240  0.2894590    0.00000       Uiso       1.00
       H58          H  0.3686240  0.3299930  0.2894590    0.00000       Uiso       1.00
       H59          H  0.6700080  0.0386320  0.2894590    0.00000       Uiso       1.00
       H60          H  0.9613700  0.6313770  0.2894590    0.00000       Uiso       1.00
       H61          H  0.3686240  0.3299930  0.7105360    0.00000       Uiso       1.00
       H62          H  0.6700080  0.0386320  0.7105360    0.00000       Uiso       1.00
       H63          H  0.9613700  0.6313770  0.7105360    0.00000       Uiso       1.00
       H64          H  0.6313770  0.6700080  0.7105360    0.00000       Uiso       1.00
       H65          H  0.3299930  0.9613699  0.7105360    0.00000       Uiso       1.00
       H66          H  0.0386320  0.3686240  0.7105360    0.00000       Uiso       1.00
       H67          H  0.7113350  0.6151740  0.2888930    0.00000       Uiso       1.00
       H68          H  0.3848270  0.0961610  0.2888930    0.00000       Uiso       1.00
       H69          H  0.9038400  0.2886660  0.2888930    0.00000       Uiso       1.00
       H70          H  0.2886660  0.3848270  0.2888930    0.00000       Uiso       1.00
       H71          H  0.6151740  0.9038400  0.2888930    0.00000       Uiso       1.00
       H72          H  0.0961610  0.7113360  0.2888930    0.00000       Uiso       1.00
       H73          H  0.2886660  0.3848270  0.7111020    0.00000       Uiso       1.00
       H74          H  0.6151740  0.9038400  0.7111020    0.00000       Uiso       1.00
       H75          H  0.0961610  0.7113360  0.7111020    0.00000       Uiso       1.00
       H76          H  0.7113350  0.6151740  0.7111020    0.00000       Uiso       1.00
       H77          H  0.3848270  0.0961610  0.7111020    0.00000       Uiso       1.00
       H78          H  0.9038400  0.2886660  0.7111020    0.00000       Uiso       1.00
       H79          H  0.7691110  0.7512110  0.7123490    0.00000       Uiso       1.00
       H80          H  0.2487900  0.0179000  0.7123490    0.00000       Uiso       1.00
       H81          H  0.9821010  0.2308900  0.7123490    0.00000       Uiso       1.00
       H82          H  0.2308900  0.2487900  0.7123490    0.00000       Uiso       1.00
       H83          H  0.7512110  0.9821010  0.7123490    0.00000       Uiso       1.00
       H84          H  0.0179000  0.7691110  0.7123490    0.00000       Uiso       1.00
       H85          H  0.2308900  0.2487900  0.2876460    0.00000       Uiso       1.00
       H86          H  0.7512110  0.9821010  0.2876460    0.00000       Uiso       1.00
       H87          H  0.0179000  0.7691110  0.2876460    0.00000       Uiso       1.00
       H88          H  0.7691110  0.7512110  0.2876460    0.00000       Uiso       1.00
       H89          H  0.2487900  0.0179000  0.2876460    0.00000       Uiso       1.00
       H90          H  0.9821010  0.2308900  0.2876460    0.00000       Uiso       1.00
       C91          C  0.6340930  0.6409900  0.4999980    0.00000       Uiso       1.00
       C92          C  0.3590110  0.9931040  0.4999980    0.00000       Uiso       1.00
       C93          C  0.0068970  0.3659090  0.4999980    0.00000       Uiso       1.00
       C94          C  0.3659090  0.3590110  0.4999980    0.00000       Uiso       1.00
       C95          C  0.6409900  0.0068970  0.4999980    0.00000       Uiso       1.00
       C96          C  0.9931040  0.6340930  0.4999980    0.00000       Uiso       1.00
       C97          C  0.7077140  0.6438010  0.4999980    0.00000       Uiso       1.00
       C98          C  0.3562000  0.0639130  0.4999980    0.00000       Uiso       1.00
       C99          C  0.9360890  0.2922870  0.4999980    0.00000       Uiso       1.00
      C100          C  0.2922870  0.3562000  0.4999980    0.00000       Uiso       1.00
      C101          C  0.6438010  0.9360889  0.4999980    0.00000       Uiso       1.00
      C102          C  0.0639130  0.7077140  0.4999980    0.00000       Uiso       1.00
      C103          C  0.7709620  0.7223670  0.4999980    0.00000       Uiso       1.00
      C104          C  0.2776350  0.0485950  0.4999980    0.00000       Uiso       1.00
      C105          C  0.9514060  0.2290400  0.4999980    0.00000       Uiso       1.00
      C106          C  0.2290400  0.2776350  0.4999980    0.00000       Uiso       1.00
      C107          C  0.7223670  0.9514060  0.4999980    0.00000       Uiso       1.00
      C108          C  0.0485950  0.7709620  0.4999980    0.00000       Uiso       1.00
      H109          H  0.8222240  0.7231450  0.4999980    0.00000       Uiso       1.00
      H110          H  0.2768560  0.0990790  0.4999980    0.00000       Uiso       1.00
      H111          H  0.9009219  0.1777770  0.4999980    0.00000       Uiso       1.00
      H112          H  0.1777770  0.2768560  0.4999980    0.00000       Uiso       1.00
      H113          H  0.7231450  0.9009220  0.4999980    0.00000       Uiso       1.00
      H114          H  0.0990790  0.8222240  0.4999980    0.00000       Uiso       1.00
