data_COF-14A
_audit_creation_date              0000-00-00
_audit_creation_method            'LanYouShi'
_symmetry_space_group_name_H-M    'P1'
_cell_length_a                    21.7098999
_cell_length_b                    4.1111999
_cell_length_c                    21.6910992
_cell_angle_alpha                 90.0000000
_cell_angle_beta                  120.1725006
_cell_angle_gamma                 90.0000000
loop_
_atom_site_label
_atom_site_type_symbol
_atom_site_fract_x
_atom_site_fract_y
_atom_site_fract_z
_atom_site_U_iso_or_equiv
_atom_site_adp_type
_atom_site_occupancy
        C1          C  0.0042040  0.5000000  0.5729540    0.00000       Uiso       1.00
        C2          C  0.5692770  0.5000000  0.9979060    0.00000       Uiso       1.00
        C3          C  0.4290560  0.5000000  0.4328330    0.00000       Uiso       1.00
        C4          C  0.9969121  0.5000000  0.4292660    0.00000       Uiso       1.00
        C5          C  0.4327170  0.5000000  0.0046370    0.00000       Uiso       1.00
        C6          C  0.5729960  0.5000000  0.5695600    0.00000       Uiso       1.00
        C7          C  0.0667410  0.5000000  0.5676270    0.00000       Uiso       1.00
        C8          C  0.5012820  0.5000000  0.9356840    0.00000       Uiso       1.00
        C9          C  0.4351890  0.5000000  0.5008720    0.00000       Uiso       1.00
       C10          C  0.9350060  0.5000000  0.4351480    0.00000       Uiso       1.00
       C11          C  0.5007180  0.5000000  0.0668670    0.00000       Uiso       1.00
       C12          C  0.5668560  0.5000000  0.5015240    0.00000       Uiso       1.00
       O13          O  0.1355770  0.5000000  0.6207870    0.00000       Uiso       1.00
       O14          O  0.4870850  0.5000000  0.8674190    0.00000       Uiso       1.00
       O15          O  0.3812400  0.5000000  0.5150640    0.00000       Uiso       1.00
       O16          O  0.8664700  0.5000000  0.3814300    0.00000       Uiso       1.00
       O17          O  0.5149670  0.5000000  0.1351590    0.00000       Uiso       1.00
       O18          O  0.6207990  0.5000000  0.4873300    0.00000       Uiso       1.00
       C19          C  0.5683930  0.5000000  0.0663550    0.00000       Uiso       1.00
       C20          C  0.4983560  0.5000000  0.4337580    0.00000       Uiso       1.00
       C21          C  0.9362280  0.5000000  0.5035500    0.00000       Uiso       1.00
       C22          C  0.4336100  0.5000000  0.9361860    0.00000       Uiso       1.00
       C23          C  0.5036940  0.5000000  0.5686270    0.00000       Uiso       1.00
       C24          C  0.0655810  0.5000000  0.4988160    0.00000       Uiso       1.00
       O25          O  0.6259040  0.5000000  0.1377470    0.00000       Uiso       1.00
       O26          O  0.5119530  0.5000000  0.3762380    0.00000       Uiso       1.00
       O27          O  0.8655940  0.5000000  0.4908430    0.00000       Uiso       1.00
       O28          O  0.3761330  0.5000000  0.8647861    0.00000       Uiso       1.00
       O29          O  0.4901020  0.5000000  0.6261340    0.00000       Uiso       1.00
       O30          O  0.1364810  0.5000000  0.5117370    0.00000       Uiso       1.00
       C31          C  0.2589170  0.5000000  0.6288450    0.00000       Uiso       1.00
       C32          C  0.3717690  0.5000000  0.7431980    0.00000       Uiso       1.00
       C33          C  0.3729510  0.5000000  0.6304200    0.00000       Uiso       1.00
       C34          C  0.7432680  0.5000000  0.3737130    0.00000       Uiso       1.00
       C35          C  0.6303710  0.5000000  0.2593440    0.00000       Uiso       1.00
       C36          C  0.6292060  0.5000000  0.3721070    0.00000       Uiso       1.00
       B37          B  0.1795190  0.5000000  0.5883720    0.00000       Uiso       1.00
       B38          B  0.4105510  0.5000000  0.8226660    0.00000       Uiso       1.00
       B39          B  0.4134290  0.5000000  0.5916660    0.00000       Uiso       1.00
       B40          B  0.8226780  0.5000000  0.4141270    0.00000       Uiso       1.00
       B41          B  0.5915040  0.5000000  0.1798710    0.00000       Uiso       1.00
       B42          B  0.5886250  0.5000000  0.4107540    0.00000       Uiso       1.00
       C43          C  0.5927500  0.5000000  0.2967960    0.00000       Uiso       1.00
       C44          C  0.7044870  0.5000000  0.4100340    0.00000       Uiso       1.00
       C45          C  0.7056080  0.5000000  0.2983870    0.00000       Uiso       1.00
       C46          C  0.4094010  0.5000000  0.7057420    0.00000       Uiso       1.00
       C47          C  0.2976890  0.5000000  0.5925460    0.00000       Uiso       1.00
       C48          C  0.2965440  0.5000000  0.7041470    0.00000       Uiso       1.00
       H49          H  0.7314470  0.5000000  0.4648970    0.00000       Uiso       1.00
       H50          H  0.7333030  0.5000000  0.2714160    0.00000       Uiso       1.00
       H51          H  0.5379710  0.5000000  0.2688540    0.00000       Uiso       1.00
       H52          H  0.2706380  0.5000000  0.5377350    0.00000       Uiso       1.00
       H53          H  0.2687760  0.5000000  0.7310160    0.00000       Uiso       1.00
       H54          H  0.4641700  0.5000000  0.7336750    0.00000       Uiso       1.00
       H55          H  0.1037880  0.7133850  0.7148310    0.00000       Uiso       1.00
       H56          H  0.9691090  0.7124970  0.6382650    0.00000       Uiso       1.00
       H57          H  0.6191210  0.2878240  0.7116640    0.00000       Uiso       1.00
       H58          H  0.6741370  0.2874710  0.6321250    0.00000       Uiso       1.00
       H59          H  0.3829450  0.2878480  0.2907360    0.00000       Uiso       1.00
       H60          H  0.3279690  0.2873960  0.3702970    0.00000       Uiso       1.00
       H61          H  0.0925560  0.2878660  0.3831090    0.00000       Uiso       1.00
       H62          H  0.9578229  0.2873860  0.3280900    0.00000       Uiso       1.00
       H63          H  0.2907620  0.2878160  0.9080009    0.00000       Uiso       1.00
       H64          H  0.3702380  0.2873940  0.0429660    0.00000       Uiso       1.00
       H65          H  0.7112680  0.2878270  0.0944930    0.00000       Uiso       1.00
       H66          H  0.6316960  0.2874100  0.9595119    0.00000       Uiso       1.00
       H67          H  0.1037880  0.2866160  0.7148310    0.00000       Uiso       1.00
       H68          H  0.9691090  0.2875040  0.6382650    0.00000       Uiso       1.00
       H69          H  0.6191210  0.7121770  0.7116640    0.00000       Uiso       1.00
       H70          H  0.6741370  0.7125300  0.6321250    0.00000       Uiso       1.00
       H71          H  0.3829450  0.7121530  0.2907360    0.00000       Uiso       1.00
       H72          H  0.3279690  0.7126050  0.3702970    0.00000       Uiso       1.00
       H73          H  0.0925560  0.7121350  0.3831090    0.00000       Uiso       1.00
       H74          H  0.9578229  0.7126150  0.3280900    0.00000       Uiso       1.00
       H75          H  0.2907620  0.7121850  0.9080009    0.00000       Uiso       1.00
       H76          H  0.3702380  0.7126070  0.0429660    0.00000       Uiso       1.00
       H77          H  0.7112680  0.7121740  0.0944930    0.00000       Uiso       1.00
       H78          H  0.6316960  0.7125910  0.9595119    0.00000       Uiso       1.00
       C79          C  0.0722570  0.5000000  0.7113300    0.00000       Uiso       1.00
       C80          C  0.0002350  0.5000000  0.6398320    0.00000       Uiso       1.00
       H81          H  0.0636420  0.5000000  0.7567730    0.00000       Uiso       1.00
       C82          C  0.6471090  0.5000000  0.7075090    0.00000       Uiso       1.00
       C83          C  0.6452990  0.5000000  0.6349340    0.00000       Uiso       1.00
       H84          H  0.7017510  0.5000000  0.7522010    0.00000       Uiso       1.00
       C85          C  0.3549390  0.5000000  0.2948770    0.00000       Uiso       1.00
       C86          C  0.3567560  0.5000000  0.3674530    0.00000       Uiso       1.00
       H87          H  0.3003100  0.5000000  0.2501700    0.00000       Uiso       1.00
       C88          C  0.0602490  0.5000000  0.3550760    0.00000       Uiso       1.00
       C89          C  0.9895770  0.5000000  0.3569150    0.00000       Uiso       1.00
       H90          H  0.0500120  0.5000000  0.3004040    0.00000       Uiso       1.00
       C91          C  0.2948740  0.5000000  0.9401740    0.00000       Uiso       1.00
       C92          C  0.3674010  0.5000000  0.0113000    0.00000       Uiso       1.00
       H93          H  0.2502250  0.5000000  0.9499420    0.00000       Uiso       1.00
       C94          C  0.7071090  0.5000000  0.0623020    0.00000       Uiso       1.00
       C95          C  0.6345640  0.5000000  0.9912000    0.00000       Uiso       1.00
       H96          H  0.7517410  0.5000000  0.0525080    0.00000       Uiso       1.00
