data_COF-16A
_audit_creation_date              0000-00-00
_audit_creation_method            'LanYouShi'
_symmetry_space_group_name_H-M    'P1'
_cell_length_a                    21.4918003
_cell_length_b                    4.0186000
_cell_length_c                    21.4899006
_cell_angle_alpha                 90.0000000
_cell_angle_beta                  119.9915009
_cell_angle_gamma                 90.0000000
loop_
_atom_site_label
_atom_site_type_symbol
_atom_site_fract_x
_atom_site_fract_y
_atom_site_fract_z
_atom_site_U_iso_or_equiv
_atom_site_adp_type
_atom_site_occupancy
        C1          C  0.0000860  0.5000000  0.5675840    0.00000       Uiso       1.00
        C2          C  0.5676050  0.5000000  0.9998099    0.00000       Uiso       1.00
        C3          C  0.4324030  0.5000000  0.4323350    0.00000       Uiso       1.00
        C4          C  0.0001210  0.5000000  0.4323230    0.00000       Uiso       1.00
        C5          C  0.5676390  0.5000000  0.5676100    0.00000       Uiso       1.00
        C6          C  0.0643550  0.5000000  0.5647650    0.00000       Uiso       1.00
        C7          C  0.5004730  0.5000000  0.9355950    0.00000       Uiso       1.00
        C8          C  0.4352100  0.5000000  0.4994210    0.00000       Uiso       1.00
        C9          C  0.9358000  0.5000000  0.4351230    0.00000       Uiso       1.00
       C10          C  0.4996200  0.5000000  0.0642710    0.00000       Uiso       1.00
       C11          C  0.5648870  0.5000000  0.5005050    0.00000       Uiso       1.00
       O12          O  0.1322730  0.5000000  0.6207610    0.00000       Uiso       1.00
       O13          O  0.4885470  0.5000000  0.8676671    0.00000       Uiso       1.00
       O14          O  0.3792110  0.5000000  0.5113500    0.00000       Uiso       1.00
       O15          O  0.8678530  0.5000000  0.3791500    0.00000       Uiso       1.00
       O16          O  0.5115460  0.5000000  0.1322000    0.00000       Uiso       1.00
       O17          O  0.6208620  0.5000000  0.4885200    0.00000       Uiso       1.00
       C18          C  0.5649600  0.5000000  0.0642150    0.00000       Uiso       1.00
       C19          C  0.4995140  0.5000000  0.4351170    0.00000       Uiso       1.00
       C20          C  0.9357840  0.5000000  0.5005070    0.00000       Uiso       1.00
       C21          C  0.4351340  0.5000000  0.9356521    0.00000       Uiso       1.00
       C22          C  0.5005460  0.5000000  0.5647750    0.00000       Uiso       1.00
       C23          C  0.0643690  0.5000000  0.4994160    0.00000       Uiso       1.00
       O24          O  0.6209230  0.5000000  0.1321720    0.00000       Uiso       1.00
       O25          O  0.5115120  0.5000000  0.3791470    0.00000       Uiso       1.00
       O26          O  0.8678270  0.5000000  0.4885170    0.00000       Uiso       1.00
       O27          O  0.3791720  0.5000000  0.8676949    0.00000       Uiso       1.00
       O28          O  0.4885970  0.5000000  0.6207650    0.00000       Uiso       1.00
       O29          O  0.1322940  0.5000000  0.5113520    0.00000       Uiso       1.00
       C30          C  0.2570790  0.5000000  0.6284560    0.00000       Uiso       1.00
       C31          C  0.3714670  0.5000000  0.7428640    0.00000       Uiso       1.00
       C32          C  0.3714850  0.5000000  0.6284550    0.00000       Uiso       1.00
       C33          C  0.7430200  0.5000000  0.3714140    0.00000       Uiso       1.00
       C34          C  0.6286280  0.5000000  0.2570050    0.00000       Uiso       1.00
       C35          C  0.6286090  0.5000000  0.3714150    0.00000       Uiso       1.00
       B36          B  0.1770240  0.5000000  0.5884280    0.00000       Uiso       1.00
       B37          B  0.4114860  0.5000000  0.8229270    0.00000       Uiso       1.00
       B38          B  0.4115250  0.5000000  0.5884260    0.00000       Uiso       1.00
       B39          B  0.8230780  0.5000000  0.4114480    0.00000       Uiso       1.00
       B40          B  0.5886080  0.5000000  0.1769410    0.00000       Uiso       1.00
       B41          B  0.5885740  0.5000000  0.4114510    0.00000       Uiso       1.00
       C42          C  0.5912370  0.5000000  0.2955180    0.00000       Uiso       1.00
       C43          C  0.7045000  0.5000000  0.4087970    0.00000       Uiso       1.00
       C44          C  0.7045180  0.5000000  0.2955170    0.00000       Uiso       1.00
       C45          C  0.4088620  0.5000000  0.7043530    0.00000       Uiso       1.00
       C46          C  0.2955940  0.5000000  0.5910660    0.00000       Uiso       1.00
       C47          C  0.2955770  0.5000000  0.7043530    0.00000       Uiso       1.00
       H48          H  0.7321130  0.5000000  0.4640410    0.00000       Uiso       1.00
       H49          H  0.7321440  0.5000000  0.2678940    0.00000       Uiso       1.00
       H50          H  0.5359940  0.5000000  0.2678930    0.00000       Uiso       1.00
       H51          H  0.2679760  0.5000000  0.5358130    0.00000       Uiso       1.00
       H52          H  0.2679480  0.5000000  0.7319770    0.00000       Uiso       1.00
       H53          H  0.4641090  0.5000000  0.7319790    0.00000       Uiso       1.00
       H54          H  0.3615470  0.2822390  0.0298410    0.00000       Uiso       1.00
       H55          H  0.3615470  0.7177620  0.0298410    0.00000       Uiso       1.00
       H56          H  0.0298570  0.7177510  0.3613380    0.00000       Uiso       1.00
       H57          H  0.0298570  0.2822490  0.3613380    0.00000       Uiso       1.00
       H58          H  0.3317160  0.2822460  0.3613170    0.00000       Uiso       1.00
       H59          H  0.3317160  0.7177550  0.3613170    0.00000       Uiso       1.00
       H60          H  0.0297510  0.2822380  0.6682810    0.00000       Uiso       1.00
       H61          H  0.0297510  0.7177630  0.6682810    0.00000       Uiso       1.00
       H62          H  0.6386050  0.7177520  0.6683180    0.00000       Uiso       1.00
       H63          H  0.6386050  0.2822490  0.6683180    0.00000       Uiso       1.00
       H64          H  0.6385320  0.2822450  0.9700040    0.00000       Uiso       1.00
       H65          H  0.6385320  0.7177560  0.9700040    0.00000       Uiso       1.00
       C66          C  0.0011880  0.5000000  0.6371630    0.00000       Uiso       1.00
       C67          C  0.6360210  0.5000000  0.9985990    0.00000       Uiso       1.00
       C68          C  0.3628360  0.5000000  0.3638680    0.00000       Uiso       1.00
       H69          H  0.3174040  0.5000000  0.9470139    0.00000       Uiso       1.00
       C70          C  0.0012760  0.5000000  0.3638720    0.00000       Uiso       1.00
       H71          H  0.9470740  0.5000000  0.3172960    0.00000       Uiso       1.00
       H72          H  0.3704890  0.5000000  0.3172710    0.00000       Uiso       1.00
       C73          C  0.3640650  0.5000000  0.0012530    0.00000       Uiso       1.00
       H74          H  0.9469670  0.5000000  0.6295520    0.00000       Uiso       1.00
       C75          C  0.6360770  0.5000000  0.6372040    0.00000       Uiso       1.00
       H76          H  0.6826900  0.5000000  0.6295860    0.00000       Uiso       1.00
       H77          H  0.6826880  0.5000000  0.0528330    0.00000       Uiso       1.00
       C78          C  0.4324880  0.5000000  0.0000550    0.00000       Uiso       1.00
