data_COF-1-forcite
_audit_creation_date              0000-00-00
_audit_creation_method            'LanYouShi'
_symmetry_space_group_name_H-M    'P1'
_cell_length_a                    15.6528997
_cell_length_b                    15.6528997
_cell_length_c                    6.7005000
_cell_angle_alpha                 90.0000000
_cell_angle_beta                  90.0000000
_cell_angle_gamma                 120.0000000
loop_
_atom_site_label
_atom_site_type_symbol
_atom_site_fract_x
_atom_site_fract_y
_atom_site_fract_z
_atom_site_U_iso_or_equiv
_atom_site_adp_type
_atom_site_occupancy
        B1          B  0.0541320  0.1082650  0.2500000    0.00000       Uiso       1.00
        O2          O  0.3883090  0.7766170  0.2500000    0.00000       Uiso       1.00
        C3          C  0.2195310  0.4390630  0.2500000    0.00000       Uiso       1.00
        B4          B  0.8917350  0.9458680  0.2500000    0.00000       Uiso       1.00
        O5          O  0.2233830  0.6116910  0.2500000    0.00000       Uiso       1.00
        C6          C  0.5609370  0.7804690  0.2500000    0.00000       Uiso       1.00
        B7          B  0.0541320  0.9458680  0.2500000    0.00000       Uiso       1.00
        O8          O  0.3883090  0.6116910  0.2500000    0.00000       Uiso       1.00
        C9          C  0.2195310  0.7804690  0.2500000    0.00000       Uiso       1.00
       B10          B  0.9458680  0.8917350  0.7500000    0.00000       Uiso       1.00
       O11          O  0.6116910  0.2233830  0.7500000    0.00000       Uiso       1.00
       C12          C  0.7804690  0.5609370  0.7500000    0.00000       Uiso       1.00
       B13          B  0.1082650  0.0541320  0.7500000    0.00000       Uiso       1.00
       O14          O  0.7766170  0.3883090  0.7500000    0.00000       Uiso       1.00
       C15          C  0.4390630  0.2195310  0.7500000    0.00000       Uiso       1.00
       B16          B  0.9458680  0.0541320  0.7500000    0.00000       Uiso       1.00
       O17          O  0.6116910  0.3883090  0.7500000    0.00000       Uiso       1.00
       C18          C  0.7804690  0.2195310  0.7500000    0.00000       Uiso       1.00
       B19          B  0.4417570  0.7208790  0.2500000    0.00000       Uiso       1.00
       B20          B  0.2791210  0.7208790  0.2500000    0.00000       Uiso       1.00
       B21          B  0.2791210  0.5582430  0.2500000    0.00000       Uiso       1.00
       B22          B  0.5582430  0.2791210  0.7500000    0.00000       Uiso       1.00
       B23          B  0.7208790  0.2791210  0.7500000    0.00000       Uiso       1.00
       B24          B  0.7208790  0.4417570  0.7500000    0.00000       Uiso       1.00
       O25          O  0.1098960  0.0549480  0.2500000    0.00000       Uiso       1.00
       O26          O  0.9450520  0.0549480  0.2500000    0.00000       Uiso       1.00
       O27          O  0.9450520  0.8901039  0.2500000    0.00000       Uiso       1.00
       O28          O  0.8901040  0.9450520  0.7500000    0.00000       Uiso       1.00
       O29          O  0.0549480  0.9450520  0.7500000    0.00000       Uiso       1.00
       O30          O  0.0549480  0.1098960  0.7500000    0.00000       Uiso       1.00
       C31          C  0.1155130  0.3851180  0.2500000    0.00000       Uiso       1.00
       C32          C  0.2174940  0.2809080  0.2500000    0.00000       Uiso       1.00
       H33          H  0.0739360  0.4234140  0.2500000    0.00000       Uiso       1.00
       H34          H  0.2589930  0.2425130  0.2500000    0.00000       Uiso       1.00
       C35          C  0.6148820  0.7303950  0.2500000    0.00000       Uiso       1.00
       C36          C  0.7190920  0.9365850  0.2500000    0.00000       Uiso       1.00
       H37          H  0.5765860  0.6505220  0.2500000    0.00000       Uiso       1.00
       H38          H  0.7574870  0.0164800  0.2500000    0.00000       Uiso       1.00
       C39          C  0.2696050  0.8844869  0.2500000    0.00000       Uiso       1.00
       C40          C  0.0634150  0.7825070  0.2500000    0.00000       Uiso       1.00
       H41          H  0.3494780  0.9260640  0.2500000    0.00000       Uiso       1.00
       H42          H  0.9835200  0.7410070  0.2500000    0.00000       Uiso       1.00
       C43          C  0.8844870  0.6148821  0.7500000    0.00000       Uiso       1.00
       C44          C  0.7825060  0.7190921  0.7500000    0.00000       Uiso       1.00
       H45          H  0.9260640  0.5765860  0.7500000    0.00000       Uiso       1.00
       H46          H  0.7410070  0.7574870  0.7500000    0.00000       Uiso       1.00
       C47          C  0.3851180  0.2696050  0.7500000    0.00000       Uiso       1.00
       C48          C  0.2809080  0.0634150  0.7500000    0.00000       Uiso       1.00
       H49          H  0.4234140  0.3494780  0.7500000    0.00000       Uiso       1.00
       H50          H  0.2425130  0.9835200  0.7500000    0.00000       Uiso       1.00
       C51          C  0.7303950  0.1155130  0.7500000    0.00000       Uiso       1.00
       C52          C  0.9365850  0.2174940  0.7500000    0.00000       Uiso       1.00
       H53          H  0.6505220  0.0739360  0.7500000    0.00000       Uiso       1.00
       H54          H  0.0164800  0.2589930  0.7500000    0.00000       Uiso       1.00
       C55          C  0.3851180  0.1155130  0.7500000    0.00000       Uiso       1.00
       C56          C  0.2809080  0.2174940  0.7500000    0.00000       Uiso       1.00
       H57          H  0.4234140  0.0739360  0.7500000    0.00000       Uiso       1.00
       H58          H  0.2425130  0.2589930  0.7500000    0.00000       Uiso       1.00
       C59          C  0.7303950  0.6148821  0.7500000    0.00000       Uiso       1.00
       C60          C  0.9365850  0.7190921  0.7500000    0.00000       Uiso       1.00
       H61          H  0.6505220  0.5765860  0.7500000    0.00000       Uiso       1.00
       H62          H  0.0164800  0.7574870  0.7500000    0.00000       Uiso       1.00
       C63          C  0.8844870  0.2696050  0.7500000    0.00000       Uiso       1.00
       C64          C  0.7825060  0.0634150  0.7500000    0.00000       Uiso       1.00
       H65          H  0.9260640  0.3494780  0.7500000    0.00000       Uiso       1.00
       H66          H  0.7410070  0.9835200  0.7500000    0.00000       Uiso       1.00
       C67          C  0.6148820  0.8844869  0.2500000    0.00000       Uiso       1.00
       C68          C  0.7190920  0.7825070  0.2500000    0.00000       Uiso       1.00
       H69          H  0.5765860  0.9260640  0.2500000    0.00000       Uiso       1.00
       H70          H  0.7574870  0.7410070  0.2500000    0.00000       Uiso       1.00
       C71          C  0.2696050  0.3851180  0.2500000    0.00000       Uiso       1.00
       C72          C  0.0634150  0.2809080  0.2500000    0.00000       Uiso       1.00
       H73          H  0.3494780  0.4234140  0.2500000    0.00000       Uiso       1.00
       H74          H  0.9835200  0.2425130  0.2500000    0.00000       Uiso       1.00
       C75          C  0.1155130  0.7303950  0.2500000    0.00000       Uiso       1.00
       C76          C  0.2174940  0.9365850  0.2500000    0.00000       Uiso       1.00
       H77          H  0.0739360  0.6505220  0.2500000    0.00000       Uiso       1.00
       H78          H  0.2589930  0.0164800  0.2500000    0.00000       Uiso       1.00
       C79          C  0.1135500  0.8864500  0.2500000    0.00000       Uiso       1.00
       C80          C  0.1135500  0.2271010  0.2500000    0.00000       Uiso       1.00
       C81          C  0.7728990  0.8864500  0.2500000    0.00000       Uiso       1.00
       C82          C  0.8864500  0.1135500  0.7500000    0.00000       Uiso       1.00
       C83          C  0.8864500  0.7728990  0.7500000    0.00000       Uiso       1.00
       C84          C  0.2271010  0.1135500  0.7500000    0.00000       Uiso       1.00
