data_COF-202
_audit_creation_date              0000-00-00
_audit_creation_method            'LanYouShi'
_symmetry_space_group_name_H-M    'P1'
_cell_length_a                    30.1051006
_cell_length_b                    30.1051006
_cell_length_c                    30.1051006
_cell_angle_alpha                 90.0000000
_cell_angle_beta                  90.0000000
_cell_angle_gamma                 90.0000000
loop_
_atom_site_label
_atom_site_type_symbol
_atom_site_fract_x
_atom_site_fract_y
_atom_site_fract_z
_atom_site_U_iso_or_equiv
_atom_site_adp_type
_atom_site_occupancy
        C1          C  0.6965100  0.6057900  0.2332000    0.00000       Uiso       1.00
        C2          C  0.6569200  0.5394300  0.2581700    0.00000       Uiso       1.00
        B3          B  0.7530300  0.6466500  0.2826200    0.00000       Uiso       1.00
        O4          O  0.7602300  0.6798000  0.2474400    0.00000       Uiso       1.00
        C5          C  0.6823300  0.5406900  0.2976100    0.00000       Uiso       1.00
        C6          C  0.7196200  0.6078900  0.2735400    0.00000       Uiso       1.00
        C7          C  0.7126900  0.5748200  0.3055000    0.00000       Uiso       1.00
        O8          O  0.7745900  0.6491500  0.3264700    0.00000       Uiso       1.00
        C9          C  0.7445700  0.7678100  0.1802700    0.00000       Uiso       1.00
       C10          C  0.8649900  0.5881200  0.3455100    0.00000       Uiso       1.00
       H11          H  0.7237000  0.7888500  0.1582500    0.00000       Uiso       1.00
       H12          H  0.7796100  0.7790500  0.1771600    0.00000       Uiso       1.00
       H13          H  0.7423430  0.7329300  0.1683300    0.00000       Uiso       1.00
       H14          H  0.8861300  0.5661200  0.3663200    0.00000       Uiso       1.00
       H15          H  0.8308900  0.5739700  0.3447200    0.00000       Uiso       1.00
       H16          H  0.8784700  0.5879400  0.3111400    0.00000       Uiso       1.00
       H17          H  0.6782700  0.5151900  0.3226600    0.00000       Uiso       1.00
       H18          H  0.6505900  0.5704500  0.1929600    0.00000       Uiso       1.00
       H19          H  0.7308200  0.5750800  0.3365900    0.00000       Uiso       1.00
       H20          H  0.7020800  0.6303100  0.2074500    0.00000       Uiso       1.00
       C21          C  0.4774310  0.1802030  0.5837490    0.00000       Uiso       1.00
       C22          C  0.1965100  0.1057900  0.7332000    0.00000       Uiso       1.00
       C23          C  0.1569200  0.0394300  0.7581700    0.00000       Uiso       1.00
       B24          B  0.2530300  0.1466500  0.7826200    0.00000       Uiso       1.00
       O25          O  0.2602300  0.1798000  0.7474400    0.00000       Uiso       1.00
       C26          C  0.1823300  0.0406900  0.7976100    0.00000       Uiso       1.00
       C27          C  0.2196200  0.1078900  0.7735400    0.00000       Uiso       1.00
       C28          C  0.2126900  0.0748200  0.8055000    0.00000       Uiso       1.00
       O29          O  0.2745900  0.1491500  0.8264700    0.00000       Uiso       1.00
       C30          C  0.2445700  0.2678100  0.6802700    0.00000       Uiso       1.00
       C31          C  0.3649900  0.0881200  0.8455100    0.00000       Uiso       1.00
       H32          H  0.2237000  0.2888500  0.6582500    0.00000       Uiso       1.00
       H33          H  0.2796100  0.2790500  0.6771600    0.00000       Uiso       1.00
       H34          H  0.2423430  0.2329300  0.6683300    0.00000       Uiso       1.00
       H35          H  0.3861300  0.0661200  0.8663200    0.00000       Uiso       1.00
       H36          H  0.3308900  0.0739700  0.8447199    0.00000       Uiso       1.00
       H37          H  0.3784700  0.0879400  0.8111400    0.00000       Uiso       1.00
       H38          H  0.1782700  0.0151900  0.8226600    0.00000       Uiso       1.00
       H39          H  0.1505900  0.0704500  0.6929600    0.00000       Uiso       1.00
       H40          H  0.2308200  0.0750800  0.8365900    0.00000       Uiso       1.00
       H41          H  0.2020800  0.1303100  0.7074500    0.00000       Uiso       1.00
       C42          C  0.9774310  0.6802030  0.0837490    0.00000       Uiso       1.00
       C43          C  0.8034900  0.3942100  0.7332000    0.00000       Uiso       1.00
       C44          C  0.8430800  0.4605700  0.7581700    0.00000       Uiso       1.00
       B45          B  0.7469699  0.3533500  0.7826200    0.00000       Uiso       1.00
       O46          O  0.7397699  0.3202000  0.7474400    0.00000       Uiso       1.00
       C47          C  0.8176700  0.4593100  0.7976100    0.00000       Uiso       1.00
       C48          C  0.7803800  0.3921100  0.7735400    0.00000       Uiso       1.00
       C49          C  0.7873100  0.4251800  0.8055000    0.00000       Uiso       1.00
       O50          O  0.7254100  0.3508500  0.8264700    0.00000       Uiso       1.00
       C51          C  0.7554300  0.2321900  0.6802700    0.00000       Uiso       1.00
       C52          C  0.6350100  0.4118800  0.8455100    0.00000       Uiso       1.00
       H53          H  0.7763000  0.2111500  0.6582500    0.00000       Uiso       1.00
       H54          H  0.7203900  0.2209500  0.6771600    0.00000       Uiso       1.00
       H55          H  0.7576570  0.2670700  0.6683300    0.00000       Uiso       1.00
       H56          H  0.6138700  0.4338800  0.8663200    0.00000       Uiso       1.00
       H57          H  0.6691100  0.4260300  0.8447199    0.00000       Uiso       1.00
       H58          H  0.6215300  0.4120600  0.8111400    0.00000       Uiso       1.00
       H59          H  0.8217300  0.4848100  0.8226600    0.00000       Uiso       1.00
       H60          H  0.8494100  0.4295500  0.6929600    0.00000       Uiso       1.00
       H61          H  0.7691800  0.4249200  0.8365900    0.00000       Uiso       1.00
       H62          H  0.7979200  0.3696900  0.7074500    0.00000       Uiso       1.00
       C63          C  0.0225690  0.8197970  0.0837490    0.00000       Uiso       1.00
       C64          C  0.3034900  0.8942100  0.2332000    0.00000       Uiso       1.00
       C65          C  0.3430800  0.9605700  0.2581700    0.00000       Uiso       1.00
       B66          B  0.2469700  0.8533500  0.2826200    0.00000       Uiso       1.00
       O67          O  0.2397700  0.8202000  0.2474400    0.00000       Uiso       1.00
       C68          C  0.3176700  0.9593100  0.2976100    0.00000       Uiso       1.00
       C69          C  0.2803800  0.8921100  0.2735400    0.00000       Uiso       1.00
       C70          C  0.2873100  0.9251800  0.3055000    0.00000       Uiso       1.00
       O71          O  0.2254100  0.8508500  0.3264700    0.00000       Uiso       1.00
       C72          C  0.2554300  0.7321900  0.1802700    0.00000       Uiso       1.00
       C73          C  0.1350100  0.9118800  0.3455100    0.00000       Uiso       1.00
       H74          H  0.2763000  0.7111500  0.1582500    0.00000       Uiso       1.00
       H75          H  0.2203900  0.7209500  0.1771600    0.00000       Uiso       1.00
       H76          H  0.2576570  0.7670700  0.1683300    0.00000       Uiso       1.00
       H77          H  0.1138700  0.9338800  0.3663200    0.00000       Uiso       1.00
       H78          H  0.1691100  0.9260300  0.3447200    0.00000       Uiso       1.00
       H79          H  0.1215300  0.9120600  0.3111400    0.00000       Uiso       1.00
       H80          H  0.3217300  0.9848100  0.3226600    0.00000       Uiso       1.00
       H81          H  0.3494100  0.9295500  0.1929600    0.00000       Uiso       1.00
       H82          H  0.2691800  0.9249200  0.3365900    0.00000       Uiso       1.00
       H83          H  0.2979200  0.8696900  0.2074500    0.00000       Uiso       1.00
       C84          C  0.5225690  0.3197970  0.5837490    0.00000       Uiso       1.00
       C85          C  0.3034900  0.1057900  0.2668000    0.00000       Uiso       1.00
       C86          C  0.3430800  0.0394300  0.2418300    0.00000       Uiso       1.00
       B87          B  0.2469700  0.1466500  0.2173800    0.00000       Uiso       1.00
       O88          O  0.2397700  0.1798000  0.2525600    0.00000       Uiso       1.00
       C89          C  0.3176700  0.0406900  0.2023900    0.00000       Uiso       1.00
       C90          C  0.2803800  0.1078900  0.2264600    0.00000       Uiso       1.00
       C91          C  0.2873100  0.0748200  0.1945000    0.00000       Uiso       1.00
       O92          O  0.2254100  0.1491500  0.1735300    0.00000       Uiso       1.00
       C93          C  0.2554300  0.2678100  0.3197300    0.00000       Uiso       1.00
       C94          C  0.1350100  0.0881200  0.1544900    0.00000       Uiso       1.00
       H95          H  0.2763000  0.2888500  0.3417500    0.00000       Uiso       1.00
       H96          H  0.2203900  0.2790500  0.3228400    0.00000       Uiso       1.00
       H97          H  0.2576570  0.2329300  0.3316700    0.00000       Uiso       1.00
       H98          H  0.1138700  0.0661200  0.1336800    0.00000       Uiso       1.00
       H99          H  0.1691100  0.0739700  0.1552800    0.00000       Uiso       1.00
      H100          H  0.1215300  0.0879400  0.1888600    0.00000       Uiso       1.00
      H101          H  0.3217300  0.0151900  0.1773400    0.00000       Uiso       1.00
      H102          H  0.3494100  0.0704500  0.3070400    0.00000       Uiso       1.00
      H103          H  0.2691800  0.0750800  0.1634100    0.00000       Uiso       1.00
      H104          H  0.2979200  0.1303100  0.2925500    0.00000       Uiso       1.00
      C105          C  0.5225690  0.6802030  0.9162510    0.00000       Uiso       1.00
      C106          C  0.8034900  0.6057900  0.7668000    0.00000       Uiso       1.00
      C107          C  0.8430800  0.5394300  0.7418300    0.00000       Uiso       1.00
      B108          B  0.7469699  0.6466500  0.7173800    0.00000       Uiso       1.00
      O109          O  0.7397699  0.6798000  0.7525600    0.00000       Uiso       1.00
      C110          C  0.8176700  0.5406900  0.7023900    0.00000       Uiso       1.00
      C111          C  0.7803800  0.6078900  0.7264600    0.00000       Uiso       1.00
      C112          C  0.7873100  0.5748200  0.6945000    0.00000       Uiso       1.00
      O113          O  0.7254100  0.6491500  0.6735300    0.00000       Uiso       1.00
      C114          C  0.7554300  0.7678100  0.8197300    0.00000       Uiso       1.00
      C115          C  0.6350100  0.5881200  0.6544900    0.00000       Uiso       1.00
      H116          H  0.7763000  0.7888500  0.8417500    0.00000       Uiso       1.00
      H117          H  0.7203900  0.7790500  0.8228400    0.00000       Uiso       1.00
      H118          H  0.7576570  0.7329300  0.8316700    0.00000       Uiso       1.00
      H119          H  0.6138700  0.5661200  0.6336800    0.00000       Uiso       1.00
      H120          H  0.6691100  0.5739700  0.6552800    0.00000       Uiso       1.00
      H121          H  0.6215300  0.5879400  0.6888600    0.00000       Uiso       1.00
      H122          H  0.8217300  0.5151900  0.6773400    0.00000       Uiso       1.00
      H123          H  0.8494100  0.5704500  0.8070400    0.00000       Uiso       1.00
      H124          H  0.7691800  0.5750800  0.6634100    0.00000       Uiso       1.00
      H125          H  0.7979200  0.6303100  0.7925500    0.00000       Uiso       1.00
      C126          C  0.0225690  0.1802030  0.4162510    0.00000       Uiso       1.00
      C127          C  0.1965100  0.8942100  0.7668000    0.00000       Uiso       1.00
      C128          C  0.1569200  0.9605700  0.7418300    0.00000       Uiso       1.00
      B129          B  0.2530300  0.8533500  0.7173800    0.00000       Uiso       1.00
      O130          O  0.2602300  0.8202000  0.7525600    0.00000       Uiso       1.00
      C131          C  0.1823300  0.9593100  0.7023900    0.00000       Uiso       1.00
      C132          C  0.2196200  0.8921100  0.7264600    0.00000       Uiso       1.00
      C133          C  0.2126900  0.9251800  0.6945000    0.00000       Uiso       1.00
      O134          O  0.2745900  0.8508500  0.6735300    0.00000       Uiso       1.00
      C135          C  0.2445700  0.7321900  0.8197300    0.00000       Uiso       1.00
      C136          C  0.3649900  0.9118800  0.6544900    0.00000       Uiso       1.00
      H137          H  0.2237000  0.7111500  0.8417500    0.00000       Uiso       1.00
      H138          H  0.2796100  0.7209500  0.8228400    0.00000       Uiso       1.00
      H139          H  0.2423430  0.7670700  0.8316700    0.00000       Uiso       1.00
      H140          H  0.3861300  0.9338800  0.6336800    0.00000       Uiso       1.00
      H141          H  0.3308900  0.9260300  0.6552800    0.00000       Uiso       1.00
      H142          H  0.3784700  0.9120600  0.6888600    0.00000       Uiso       1.00
      H143          H  0.1782700  0.9848100  0.6773400    0.00000       Uiso       1.00
      H144          H  0.1505900  0.9295500  0.8070400    0.00000       Uiso       1.00
      H145          H  0.2308200  0.9249200  0.6634100    0.00000       Uiso       1.00
      H146          H  0.2020800  0.8696900  0.7925500    0.00000       Uiso       1.00
      C147          C  0.9774310  0.3197970  0.4162510    0.00000       Uiso       1.00
      C148          C  0.6965100  0.3942100  0.2668000    0.00000       Uiso       1.00
      C149          C  0.6569200  0.4605700  0.2418300    0.00000       Uiso       1.00
      B150          B  0.7530300  0.3533500  0.2173800    0.00000       Uiso       1.00
      O151          O  0.7602300  0.3202000  0.2525600    0.00000       Uiso       1.00
      C152          C  0.6823300  0.4593100  0.2023900    0.00000       Uiso       1.00
      C153          C  0.7196200  0.3921100  0.2264600    0.00000       Uiso       1.00
      C154          C  0.7126900  0.4251800  0.1945000    0.00000       Uiso       1.00
      O155          O  0.7745900  0.3508500  0.1735300    0.00000       Uiso       1.00
      C156          C  0.7445700  0.2321900  0.3197300    0.00000       Uiso       1.00
      C157          C  0.8649900  0.4118800  0.1544900    0.00000       Uiso       1.00
      H158          H  0.7237000  0.2111500  0.3417500    0.00000       Uiso       1.00
      H159          H  0.7796100  0.2209500  0.3228400    0.00000       Uiso       1.00
      H160          H  0.7423430  0.2670700  0.3316700    0.00000       Uiso       1.00
      H161          H  0.8861300  0.4338800  0.1336800    0.00000       Uiso       1.00
      H162          H  0.8308900  0.4260300  0.1552800    0.00000       Uiso       1.00
      H163          H  0.8784700  0.4120600  0.1888600    0.00000       Uiso       1.00
      H164          H  0.6782700  0.4848100  0.1773400    0.00000       Uiso       1.00
      H165          H  0.6505900  0.4295500  0.3070400    0.00000       Uiso       1.00
      H166          H  0.7308200  0.4249200  0.1634100    0.00000       Uiso       1.00
      H167          H  0.7020800  0.3696900  0.2925500    0.00000       Uiso       1.00
      C168          C  0.4774310  0.8197970  0.9162510    0.00000       Uiso       1.00
      C169          C  0.2332000  0.6965100  0.6057900    0.00000       Uiso       1.00
      C170          C  0.2581700  0.6569200  0.5394300    0.00000       Uiso       1.00
      B171          B  0.2826200  0.7530300  0.6466500    0.00000       Uiso       1.00
      O172          O  0.2474400  0.7602300  0.6798000    0.00000       Uiso       1.00
      C173          C  0.2976100  0.6823300  0.5406900    0.00000       Uiso       1.00
      C174          C  0.2735400  0.7196200  0.6078900    0.00000       Uiso       1.00
      C175          C  0.3055000  0.7126900  0.5748200    0.00000       Uiso       1.00
      O176          O  0.3264700  0.7745900  0.6491500    0.00000       Uiso       1.00
      C177          C  0.1802700  0.7445700  0.7678100    0.00000       Uiso       1.00
      C178          C  0.3455100  0.8649900  0.5881200    0.00000       Uiso       1.00
      H179          H  0.1582500  0.7237000  0.7888500    0.00000       Uiso       1.00
      H180          H  0.1771600  0.7796100  0.7790500    0.00000       Uiso       1.00
      H181          H  0.1683300  0.7423430  0.7329300    0.00000       Uiso       1.00
      H182          H  0.3663200  0.8861300  0.5661200    0.00000       Uiso       1.00
      H183          H  0.3447200  0.8308900  0.5739700    0.00000       Uiso       1.00
      H184          H  0.3111400  0.8784700  0.5879400    0.00000       Uiso       1.00
      H185          H  0.3226600  0.6782700  0.5151900    0.00000       Uiso       1.00
      H186          H  0.1929600  0.6505900  0.5704500    0.00000       Uiso       1.00
      H187          H  0.3365900  0.7308200  0.5750800    0.00000       Uiso       1.00
      H188          H  0.2074500  0.7020800  0.6303100    0.00000       Uiso       1.00
      C189          C  0.5837490  0.4774310  0.1802030    0.00000       Uiso       1.00
      C190          C  0.7332000  0.1965100  0.1057900    0.00000       Uiso       1.00
      C191          C  0.7581700  0.1569200  0.0394300    0.00000       Uiso       1.00
      B192          B  0.7826200  0.2530300  0.1466500    0.00000       Uiso       1.00
      O193          O  0.7474400  0.2602300  0.1798000    0.00000       Uiso       1.00
      C194          C  0.7976100  0.1823300  0.0406900    0.00000       Uiso       1.00
      C195          C  0.7735400  0.2196200  0.1078900    0.00000       Uiso       1.00
      C196          C  0.8055000  0.2126900  0.0748200    0.00000       Uiso       1.00
      O197          O  0.8264700  0.2745900  0.1491500    0.00000       Uiso       1.00
      C198          C  0.6802700  0.2445700  0.2678100    0.00000       Uiso       1.00
      C199          C  0.8455100  0.3649900  0.0881200    0.00000       Uiso       1.00
      H200          H  0.6582500  0.2237000  0.2888500    0.00000       Uiso       1.00
      H201          H  0.6771600  0.2796100  0.2790500    0.00000       Uiso       1.00
      H202          H  0.6683300  0.2423430  0.2329300    0.00000       Uiso       1.00
      H203          H  0.8663200  0.3861300  0.0661200    0.00000       Uiso       1.00
      H204          H  0.8447199  0.3308900  0.0739700    0.00000       Uiso       1.00
      H205          H  0.8111400  0.3784700  0.0879400    0.00000       Uiso       1.00
      H206          H  0.8226600  0.1782700  0.0151900    0.00000       Uiso       1.00
      H207          H  0.6929600  0.1505900  0.0704500    0.00000       Uiso       1.00
      H208          H  0.8365900  0.2308200  0.0750800    0.00000       Uiso       1.00
      H209          H  0.7074500  0.2020800  0.1303100    0.00000       Uiso       1.00
      C210          C  0.0837490  0.9774310  0.6802030    0.00000       Uiso       1.00
      C211          C  0.7332000  0.8034900  0.3942100    0.00000       Uiso       1.00
      C212          C  0.7581700  0.8430800  0.4605700    0.00000       Uiso       1.00
      B213          B  0.7826200  0.7469699  0.3533500    0.00000       Uiso       1.00
      O214          O  0.7474400  0.7397699  0.3202000    0.00000       Uiso       1.00
      C215          C  0.7976100  0.8176700  0.4593100    0.00000       Uiso       1.00
      C216          C  0.7735400  0.7803800  0.3921100    0.00000       Uiso       1.00
      C217          C  0.8055000  0.7873100  0.4251800    0.00000       Uiso       1.00
      O218          O  0.8264700  0.7254100  0.3508500    0.00000       Uiso       1.00
      C219          C  0.6802700  0.7554300  0.2321900    0.00000       Uiso       1.00
      C220          C  0.8455100  0.6350100  0.4118800    0.00000       Uiso       1.00
      H221          H  0.6582500  0.7763000  0.2111500    0.00000       Uiso       1.00
      H222          H  0.6771600  0.7203900  0.2209500    0.00000       Uiso       1.00
      H223          H  0.6683300  0.7576570  0.2670700    0.00000       Uiso       1.00
      H224          H  0.8663200  0.6138700  0.4338800    0.00000       Uiso       1.00
      H225          H  0.8447199  0.6691100  0.4260300    0.00000       Uiso       1.00
      H226          H  0.8111400  0.6215300  0.4120600    0.00000       Uiso       1.00
      H227          H  0.8226600  0.8217300  0.4848100    0.00000       Uiso       1.00
      H228          H  0.6929600  0.8494100  0.4295500    0.00000       Uiso       1.00
      H229          H  0.8365900  0.7691800  0.4249200    0.00000       Uiso       1.00
      H230          H  0.7074500  0.7979200  0.3696900    0.00000       Uiso       1.00
      C231          C  0.0837490  0.0225690  0.8197970    0.00000       Uiso       1.00
      C232          C  0.2332000  0.3034900  0.8942100    0.00000       Uiso       1.00
      C233          C  0.2581700  0.3430800  0.9605700    0.00000       Uiso       1.00
      B234          B  0.2826200  0.2469700  0.8533500    0.00000       Uiso       1.00
      O235          O  0.2474400  0.2397700  0.8202000    0.00000       Uiso       1.00
      C236          C  0.2976100  0.3176700  0.9593100    0.00000       Uiso       1.00
      C237          C  0.2735400  0.2803800  0.8921100    0.00000       Uiso       1.00
      C238          C  0.3055000  0.2873100  0.9251800    0.00000       Uiso       1.00
      O239          O  0.3264700  0.2254100  0.8508500    0.00000       Uiso       1.00
      C240          C  0.1802700  0.2554300  0.7321900    0.00000       Uiso       1.00
      C241          C  0.3455100  0.1350100  0.9118800    0.00000       Uiso       1.00
      H242          H  0.1582500  0.2763000  0.7111500    0.00000       Uiso       1.00
      H243          H  0.1771600  0.2203900  0.7209500    0.00000       Uiso       1.00
      H244          H  0.1683300  0.2576570  0.7670700    0.00000       Uiso       1.00
      H245          H  0.3663200  0.1138700  0.9338800    0.00000       Uiso       1.00
      H246          H  0.3447200  0.1691100  0.9260300    0.00000       Uiso       1.00
      H247          H  0.3111400  0.1215300  0.9120600    0.00000       Uiso       1.00
      H248          H  0.3226600  0.3217300  0.9848100    0.00000       Uiso       1.00
      H249          H  0.1929600  0.3494100  0.9295500    0.00000       Uiso       1.00
      H250          H  0.3365900  0.2691800  0.9249200    0.00000       Uiso       1.00
      H251          H  0.2074500  0.2979200  0.8696900    0.00000       Uiso       1.00
      C252          C  0.5837490  0.5225690  0.3197970    0.00000       Uiso       1.00
      C253          C  0.2668000  0.3034900  0.1057900    0.00000       Uiso       1.00
      C254          C  0.2418300  0.3430800  0.0394300    0.00000       Uiso       1.00
      B255          B  0.2173800  0.2469700  0.1466500    0.00000       Uiso       1.00
      O256          O  0.2525600  0.2397700  0.1798000    0.00000       Uiso       1.00
      C257          C  0.2023900  0.3176700  0.0406900    0.00000       Uiso       1.00
      C258          C  0.2264600  0.2803800  0.1078900    0.00000       Uiso       1.00
      C259          C  0.1945000  0.2873100  0.0748200    0.00000       Uiso       1.00
      O260          O  0.1735300  0.2254100  0.1491500    0.00000       Uiso       1.00
      C261          C  0.3197300  0.2554300  0.2678100    0.00000       Uiso       1.00
      C262          C  0.1544900  0.1350100  0.0881200    0.00000       Uiso       1.00
      H263          H  0.3417500  0.2763000  0.2888500    0.00000       Uiso       1.00
      H264          H  0.3228400  0.2203900  0.2790500    0.00000       Uiso       1.00
      H265          H  0.3316700  0.2576570  0.2329300    0.00000       Uiso       1.00
      H266          H  0.1336800  0.1138700  0.0661200    0.00000       Uiso       1.00
      H267          H  0.1552800  0.1691100  0.0739700    0.00000       Uiso       1.00
      H268          H  0.1888600  0.1215300  0.0879400    0.00000       Uiso       1.00
      H269          H  0.1773400  0.3217300  0.0151900    0.00000       Uiso       1.00
      H270          H  0.3070400  0.3494100  0.0704500    0.00000       Uiso       1.00
      H271          H  0.1634100  0.2691800  0.0750800    0.00000       Uiso       1.00
      H272          H  0.2925500  0.2979200  0.1303100    0.00000       Uiso       1.00
      C273          C  0.9162510  0.5225690  0.6802030    0.00000       Uiso       1.00
      C274          C  0.7668000  0.8034900  0.6057900    0.00000       Uiso       1.00
      C275          C  0.7418300  0.8430800  0.5394300    0.00000       Uiso       1.00
      B276          B  0.7173800  0.7469699  0.6466500    0.00000       Uiso       1.00
      O277          O  0.7525600  0.7397699  0.6798000    0.00000       Uiso       1.00
      C278          C  0.7023900  0.8176700  0.5406900    0.00000       Uiso       1.00
      C279          C  0.7264600  0.7803800  0.6078900    0.00000       Uiso       1.00
      C280          C  0.6945000  0.7873100  0.5748200    0.00000       Uiso       1.00
      O281          O  0.6735300  0.7254100  0.6491500    0.00000       Uiso       1.00
      C282          C  0.8197300  0.7554300  0.7678100    0.00000       Uiso       1.00
      C283          C  0.6544900  0.6350100  0.5881200    0.00000       Uiso       1.00
      H284          H  0.8417500  0.7763000  0.7888500    0.00000       Uiso       1.00
      H285          H  0.8228400  0.7203900  0.7790500    0.00000       Uiso       1.00
      H286          H  0.8316700  0.7576570  0.7329300    0.00000       Uiso       1.00
      H287          H  0.6336800  0.6138700  0.5661200    0.00000       Uiso       1.00
      H288          H  0.6552800  0.6691100  0.5739700    0.00000       Uiso       1.00
      H289          H  0.6888600  0.6215300  0.5879400    0.00000       Uiso       1.00
      H290          H  0.6773400  0.8217300  0.5151900    0.00000       Uiso       1.00
      H291          H  0.8070400  0.8494100  0.5704500    0.00000       Uiso       1.00
      H292          H  0.6634100  0.7691800  0.5750800    0.00000       Uiso       1.00
      H293          H  0.7925500  0.7979200  0.6303100    0.00000       Uiso       1.00
      C294          C  0.4162510  0.0225690  0.1802030    0.00000       Uiso       1.00
      C295          C  0.7668000  0.1965100  0.8942100    0.00000       Uiso       1.00
      C296          C  0.7418300  0.1569200  0.9605700    0.00000       Uiso       1.00
      B297          B  0.7173800  0.2530300  0.8533500    0.00000       Uiso       1.00
      O298          O  0.7525600  0.2602300  0.8202000    0.00000       Uiso       1.00
      C299          C  0.7023900  0.1823300  0.9593100    0.00000       Uiso       1.00
      C300          C  0.7264600  0.2196200  0.8921100    0.00000       Uiso       1.00
      C301          C  0.6945000  0.2126900  0.9251800    0.00000       Uiso       1.00
      O302          O  0.6735300  0.2745900  0.8508500    0.00000       Uiso       1.00
      C303          C  0.8197300  0.2445700  0.7321900    0.00000       Uiso       1.00
      C304          C  0.6544900  0.3649900  0.9118800    0.00000       Uiso       1.00
      H305          H  0.8417500  0.2237000  0.7111500    0.00000       Uiso       1.00
      H306          H  0.8228400  0.2796100  0.7209500    0.00000       Uiso       1.00
      H307          H  0.8316700  0.2423430  0.7670700    0.00000       Uiso       1.00
      H308          H  0.6336800  0.3861300  0.9338800    0.00000       Uiso       1.00
      H309          H  0.6552800  0.3308900  0.9260300    0.00000       Uiso       1.00
      H310          H  0.6888600  0.3784700  0.9120600    0.00000       Uiso       1.00
      H311          H  0.6773400  0.1782700  0.9848100    0.00000       Uiso       1.00
      H312          H  0.8070400  0.1505900  0.9295500    0.00000       Uiso       1.00
      H313          H  0.6634100  0.2308200  0.9249200    0.00000       Uiso       1.00
      H314          H  0.7925500  0.2020800  0.8696900    0.00000       Uiso       1.00
      C315          C  0.4162510  0.9774310  0.3197970    0.00000       Uiso       1.00
      C316          C  0.2668000  0.6965100  0.3942100    0.00000       Uiso       1.00
      C317          C  0.2418300  0.6569200  0.4605700    0.00000       Uiso       1.00
      B318          B  0.2173800  0.7530300  0.3533500    0.00000       Uiso       1.00
      O319          O  0.2525600  0.7602300  0.3202000    0.00000       Uiso       1.00
      C320          C  0.2023900  0.6823300  0.4593100    0.00000       Uiso       1.00
      C321          C  0.2264600  0.7196200  0.3921100    0.00000       Uiso       1.00
      C322          C  0.1945000  0.7126900  0.4251800    0.00000       Uiso       1.00
      O323          O  0.1735300  0.7745900  0.3508500    0.00000       Uiso       1.00
      C324          C  0.3197300  0.7445700  0.2321900    0.00000       Uiso       1.00
      C325          C  0.1544900  0.8649900  0.4118800    0.00000       Uiso       1.00
      H326          H  0.3417500  0.7237000  0.2111500    0.00000       Uiso       1.00
      H327          H  0.3228400  0.7796100  0.2209500    0.00000       Uiso       1.00
      H328          H  0.3316700  0.7423430  0.2670700    0.00000       Uiso       1.00
      H329          H  0.1336800  0.8861300  0.4338800    0.00000       Uiso       1.00
      H330          H  0.1552800  0.8308900  0.4260300    0.00000       Uiso       1.00
      H331          H  0.1888600  0.8784700  0.4120600    0.00000       Uiso       1.00
      H332          H  0.1773400  0.6782700  0.4848100    0.00000       Uiso       1.00
      H333          H  0.3070400  0.6505900  0.4295500    0.00000       Uiso       1.00
      H334          H  0.1634100  0.7308200  0.4249200    0.00000       Uiso       1.00
      H335          H  0.2925500  0.7020800  0.3696900    0.00000       Uiso       1.00
      C336          C  0.9162510  0.4774310  0.8197970    0.00000       Uiso       1.00
      C337          C  0.6057900  0.2332000  0.6965100    0.00000       Uiso       1.00
      C338          C  0.5394300  0.2581700  0.6569200    0.00000       Uiso       1.00
      B339          B  0.6466500  0.2826200  0.7530300    0.00000       Uiso       1.00
      O340          O  0.6798000  0.2474400  0.7602300    0.00000       Uiso       1.00
      C341          C  0.5406900  0.2976100  0.6823300    0.00000       Uiso       1.00
      C342          C  0.6078900  0.2735400  0.7196200    0.00000       Uiso       1.00
      C343          C  0.5748200  0.3055000  0.7126900    0.00000       Uiso       1.00
      O344          O  0.6491500  0.3264700  0.7745900    0.00000       Uiso       1.00
      C345          C  0.7678100  0.1802700  0.7445700    0.00000       Uiso       1.00
      C346          C  0.5881200  0.3455100  0.8649900    0.00000       Uiso       1.00
      H347          H  0.7888500  0.1582500  0.7237000    0.00000       Uiso       1.00
      H348          H  0.7790500  0.1771600  0.7796100    0.00000       Uiso       1.00
      H349          H  0.7329300  0.1683300  0.7423430    0.00000       Uiso       1.00
      H350          H  0.5661200  0.3663200  0.8861300    0.00000       Uiso       1.00
      H351          H  0.5739700  0.3447200  0.8308900    0.00000       Uiso       1.00
      H352          H  0.5879400  0.3111400  0.8784700    0.00000       Uiso       1.00
      H353          H  0.5151900  0.3226600  0.6782700    0.00000       Uiso       1.00
      H354          H  0.5704500  0.1929600  0.6505900    0.00000       Uiso       1.00
      H355          H  0.5750800  0.3365900  0.7308200    0.00000       Uiso       1.00
      H356          H  0.6303100  0.2074500  0.7020800    0.00000       Uiso       1.00
      C357          C  0.1802030  0.5837490  0.4774310    0.00000       Uiso       1.00
      C358          C  0.1057900  0.7332000  0.1965100    0.00000       Uiso       1.00
      C359          C  0.0394300  0.7581700  0.1569200    0.00000       Uiso       1.00
      B360          B  0.1466500  0.7826200  0.2530300    0.00000       Uiso       1.00
      O361          O  0.1798000  0.7474400  0.2602300    0.00000       Uiso       1.00
      C362          C  0.0406900  0.7976100  0.1823300    0.00000       Uiso       1.00
      C363          C  0.1078900  0.7735400  0.2196200    0.00000       Uiso       1.00
      C364          C  0.0748200  0.8055000  0.2126900    0.00000       Uiso       1.00
      O365          O  0.1491500  0.8264700  0.2745900    0.00000       Uiso       1.00
      C366          C  0.2678100  0.6802700  0.2445700    0.00000       Uiso       1.00
      C367          C  0.0881200  0.8455100  0.3649900    0.00000       Uiso       1.00
      H368          H  0.2888500  0.6582500  0.2237000    0.00000       Uiso       1.00
      H369          H  0.2790500  0.6771600  0.2796100    0.00000       Uiso       1.00
      H370          H  0.2329300  0.6683300  0.2423430    0.00000       Uiso       1.00
      H371          H  0.0661200  0.8663200  0.3861300    0.00000       Uiso       1.00
      H372          H  0.0739700  0.8447199  0.3308900    0.00000       Uiso       1.00
      H373          H  0.0879400  0.8111400  0.3784700    0.00000       Uiso       1.00
      H374          H  0.0151900  0.8226600  0.1782700    0.00000       Uiso       1.00
      H375          H  0.0704500  0.6929600  0.1505900    0.00000       Uiso       1.00
      H376          H  0.0750800  0.8365900  0.2308200    0.00000       Uiso       1.00
      H377          H  0.1303100  0.7074500  0.2020800    0.00000       Uiso       1.00
      C378          C  0.6802030  0.0837490  0.9774310    0.00000       Uiso       1.00
      C379          C  0.3942100  0.7332000  0.8034900    0.00000       Uiso       1.00
      C380          C  0.4605700  0.7581700  0.8430800    0.00000       Uiso       1.00
      B381          B  0.3533500  0.7826200  0.7469699    0.00000       Uiso       1.00
      O382          O  0.3202000  0.7474400  0.7397699    0.00000       Uiso       1.00
      C383          C  0.4593100  0.7976100  0.8176700    0.00000       Uiso       1.00
      C384          C  0.3921100  0.7735400  0.7803800    0.00000       Uiso       1.00
      C385          C  0.4251800  0.8055000  0.7873100    0.00000       Uiso       1.00
      O386          O  0.3508500  0.8264700  0.7254100    0.00000       Uiso       1.00
      C387          C  0.2321900  0.6802700  0.7554300    0.00000       Uiso       1.00
      C388          C  0.4118800  0.8455100  0.6350100    0.00000       Uiso       1.00
      H389          H  0.2111500  0.6582500  0.7763000    0.00000       Uiso       1.00
      H390          H  0.2209500  0.6771600  0.7203900    0.00000       Uiso       1.00
      H391          H  0.2670700  0.6683300  0.7576570    0.00000       Uiso       1.00
      H392          H  0.4338800  0.8663200  0.6138700    0.00000       Uiso       1.00
      H393          H  0.4260300  0.8447199  0.6691100    0.00000       Uiso       1.00
      H394          H  0.4120600  0.8111400  0.6215300    0.00000       Uiso       1.00
      H395          H  0.4848100  0.8226600  0.8217300    0.00000       Uiso       1.00
      H396          H  0.4295500  0.6929600  0.8494100    0.00000       Uiso       1.00
      H397          H  0.4249200  0.8365900  0.7691800    0.00000       Uiso       1.00
      H398          H  0.3696900  0.7074500  0.7979200    0.00000       Uiso       1.00
      C399          C  0.8197970  0.0837490  0.0225690    0.00000       Uiso       1.00
      C400          C  0.8942100  0.2332000  0.3034900    0.00000       Uiso       1.00
      C401          C  0.9605700  0.2581700  0.3430800    0.00000       Uiso       1.00
      B402          B  0.8533500  0.2826200  0.2469700    0.00000       Uiso       1.00
      O403          O  0.8202000  0.2474400  0.2397700    0.00000       Uiso       1.00
      C404          C  0.9593100  0.2976100  0.3176700    0.00000       Uiso       1.00
      C405          C  0.8921100  0.2735400  0.2803800    0.00000       Uiso       1.00
      C406          C  0.9251800  0.3055000  0.2873100    0.00000       Uiso       1.00
      O407          O  0.8508500  0.3264700  0.2254100    0.00000       Uiso       1.00
      C408          C  0.7321900  0.1802700  0.2554300    0.00000       Uiso       1.00
      C409          C  0.9118800  0.3455100  0.1350100    0.00000       Uiso       1.00
      H410          H  0.7111500  0.1582500  0.2763000    0.00000       Uiso       1.00
      H411          H  0.7209500  0.1771600  0.2203900    0.00000       Uiso       1.00
      H412          H  0.7670700  0.1683300  0.2576570    0.00000       Uiso       1.00
      H413          H  0.9338800  0.3663200  0.1138700    0.00000       Uiso       1.00
      H414          H  0.9260300  0.3447200  0.1691100    0.00000       Uiso       1.00
      H415          H  0.9120600  0.3111400  0.1215300    0.00000       Uiso       1.00
      H416          H  0.9848100  0.3226600  0.3217300    0.00000       Uiso       1.00
      H417          H  0.9295500  0.1929600  0.3494100    0.00000       Uiso       1.00
      H418          H  0.9249200  0.3365900  0.2691800    0.00000       Uiso       1.00
      H419          H  0.8696900  0.2074500  0.2979200    0.00000       Uiso       1.00
      C420          C  0.3197970  0.5837490  0.5225690    0.00000       Uiso       1.00
      C421          C  0.1057900  0.2668000  0.3034900    0.00000       Uiso       1.00
      C422          C  0.0394300  0.2418300  0.3430800    0.00000       Uiso       1.00
      B423          B  0.1466500  0.2173800  0.2469700    0.00000       Uiso       1.00
      O424          O  0.1798000  0.2525600  0.2397700    0.00000       Uiso       1.00
      C425          C  0.0406900  0.2023900  0.3176700    0.00000       Uiso       1.00
      C426          C  0.1078900  0.2264600  0.2803800    0.00000       Uiso       1.00
      C427          C  0.0748200  0.1945000  0.2873100    0.00000       Uiso       1.00
      O428          O  0.1491500  0.1735300  0.2254100    0.00000       Uiso       1.00
      C429          C  0.2678100  0.3197300  0.2554300    0.00000       Uiso       1.00
      C430          C  0.0881200  0.1544900  0.1350100    0.00000       Uiso       1.00
      H431          H  0.2888500  0.3417500  0.2763000    0.00000       Uiso       1.00
      H432          H  0.2790500  0.3228400  0.2203900    0.00000       Uiso       1.00
      H433          H  0.2329300  0.3316700  0.2576570    0.00000       Uiso       1.00
      H434          H  0.0661200  0.1336800  0.1138700    0.00000       Uiso       1.00
      H435          H  0.0739700  0.1552800  0.1691100    0.00000       Uiso       1.00
      H436          H  0.0879400  0.1888600  0.1215300    0.00000       Uiso       1.00
      H437          H  0.0151900  0.1773400  0.3217300    0.00000       Uiso       1.00
      H438          H  0.0704500  0.3070400  0.3494100    0.00000       Uiso       1.00
      H439          H  0.0750800  0.1634100  0.2691800    0.00000       Uiso       1.00
      H440          H  0.1303100  0.2925500  0.2979200    0.00000       Uiso       1.00
      C441          C  0.6802030  0.9162510  0.5225690    0.00000       Uiso       1.00
      C442          C  0.6057900  0.7668000  0.8034900    0.00000       Uiso       1.00
      C443          C  0.5394300  0.7418300  0.8430800    0.00000       Uiso       1.00
      B444          B  0.6466500  0.7173800  0.7469699    0.00000       Uiso       1.00
      O445          O  0.6798000  0.7525600  0.7397699    0.00000       Uiso       1.00
      C446          C  0.5406900  0.7023900  0.8176700    0.00000       Uiso       1.00
      C447          C  0.6078900  0.7264600  0.7803800    0.00000       Uiso       1.00
      C448          C  0.5748200  0.6945000  0.7873100    0.00000       Uiso       1.00
      O449          O  0.6491500  0.6735300  0.7254100    0.00000       Uiso       1.00
      C450          C  0.7678100  0.8197300  0.7554300    0.00000       Uiso       1.00
      C451          C  0.5881200  0.6544900  0.6350100    0.00000       Uiso       1.00
      H452          H  0.7888500  0.8417500  0.7763000    0.00000       Uiso       1.00
      H453          H  0.7790500  0.8228400  0.7203900    0.00000       Uiso       1.00
      H454          H  0.7329300  0.8316700  0.7576570    0.00000       Uiso       1.00
      H455          H  0.5661200  0.6336800  0.6138700    0.00000       Uiso       1.00
      H456          H  0.5739700  0.6552800  0.6691100    0.00000       Uiso       1.00
      H457          H  0.5879400  0.6888600  0.6215300    0.00000       Uiso       1.00
      H458          H  0.5151900  0.6773400  0.8217300    0.00000       Uiso       1.00
      H459          H  0.5704500  0.8070400  0.8494100    0.00000       Uiso       1.00
      H460          H  0.5750800  0.6634100  0.7691800    0.00000       Uiso       1.00
      H461          H  0.6303100  0.7925500  0.7979200    0.00000       Uiso       1.00
      C462          C  0.1802030  0.4162510  0.0225690    0.00000       Uiso       1.00
      C463          C  0.8942100  0.7668000  0.1965100    0.00000       Uiso       1.00
      C464          C  0.9605700  0.7418300  0.1569200    0.00000       Uiso       1.00
      B465          B  0.8533500  0.7173800  0.2530300    0.00000       Uiso       1.00
      O466          O  0.8202000  0.7525600  0.2602300    0.00000       Uiso       1.00
      C467          C  0.9593100  0.7023900  0.1823300    0.00000       Uiso       1.00
      C468          C  0.8921100  0.7264600  0.2196200    0.00000       Uiso       1.00
      C469          C  0.9251800  0.6945000  0.2126900    0.00000       Uiso       1.00
      O470          O  0.8508500  0.6735300  0.2745900    0.00000       Uiso       1.00
      C471          C  0.7321900  0.8197300  0.2445700    0.00000       Uiso       1.00
      C472          C  0.9118800  0.6544900  0.3649900    0.00000       Uiso       1.00
      H473          H  0.7111500  0.8417500  0.2237000    0.00000       Uiso       1.00
      H474          H  0.7209500  0.8228400  0.2796100    0.00000       Uiso       1.00
      H475          H  0.7670700  0.8316700  0.2423430    0.00000       Uiso       1.00
      H476          H  0.9338800  0.6336800  0.3861300    0.00000       Uiso       1.00
      H477          H  0.9260300  0.6552800  0.3308900    0.00000       Uiso       1.00
      H478          H  0.9120600  0.6888600  0.3784700    0.00000       Uiso       1.00
      H479          H  0.9848100  0.6773400  0.1782700    0.00000       Uiso       1.00
      H480          H  0.9295500  0.8070400  0.1505900    0.00000       Uiso       1.00
      H481          H  0.9249200  0.6634100  0.2308200    0.00000       Uiso       1.00
      H482          H  0.8696900  0.7925500  0.2020800    0.00000       Uiso       1.00
      C483          C  0.3197970  0.4162510  0.9774310    0.00000       Uiso       1.00
      C484          C  0.3942100  0.2668000  0.6965100    0.00000       Uiso       1.00
      C485          C  0.4605700  0.2418300  0.6569200    0.00000       Uiso       1.00
      B486          B  0.3533500  0.2173800  0.7530300    0.00000       Uiso       1.00
      O487          O  0.3202000  0.2525600  0.7602300    0.00000       Uiso       1.00
      C488          C  0.4593100  0.2023900  0.6823300    0.00000       Uiso       1.00
      C489          C  0.3921100  0.2264600  0.7196200    0.00000       Uiso       1.00
      C490          C  0.4251800  0.1945000  0.7126900    0.00000       Uiso       1.00
      O491          O  0.3508500  0.1735300  0.7745900    0.00000       Uiso       1.00
      C492          C  0.2321900  0.3197300  0.7445700    0.00000       Uiso       1.00
      C493          C  0.4118800  0.1544900  0.8649900    0.00000       Uiso       1.00
      H494          H  0.2111500  0.3417500  0.7237000    0.00000       Uiso       1.00
      H495          H  0.2209500  0.3228400  0.7796100    0.00000       Uiso       1.00
      H496          H  0.2670700  0.3316700  0.7423430    0.00000       Uiso       1.00
      H497          H  0.4338800  0.1336800  0.8861300    0.00000       Uiso       1.00
      H498          H  0.4260300  0.1552800  0.8308900    0.00000       Uiso       1.00
      H499          H  0.4120600  0.1888600  0.8784700    0.00000       Uiso       1.00
      H500          H  0.4848100  0.1773400  0.6782700    0.00000       Uiso       1.00
      H501          H  0.4295500  0.3070400  0.6505900    0.00000       Uiso       1.00
      H502          H  0.4249200  0.1634100  0.7308200    0.00000       Uiso       1.00
      H503          H  0.3696900  0.2925500  0.7020800    0.00000       Uiso       1.00
      C504          C  0.8197970  0.9162510  0.4774310    0.00000       Uiso       1.00
      C505          C  0.8557900  0.9465100  0.4832000    0.00000       Uiso       1.00
      C506          C  0.7894300  0.9069200  0.5081700    0.00000       Uiso       1.00
      B507          B  0.8966500  0.0030300  0.5326200    0.00000       Uiso       1.00
      O508          O  0.9298000  0.0102300  0.4974400    0.00000       Uiso       1.00
      C509          C  0.7906900  0.9323300  0.5476100    0.00000       Uiso       1.00
      C510          C  0.8578900  0.9696200  0.5235400    0.00000       Uiso       1.00
      C511          C  0.8248200  0.9626899  0.5555000    0.00000       Uiso       1.00
      O512          O  0.8991500  0.0245900  0.5764700    0.00000       Uiso       1.00
      C513          C  0.0178100  0.9945700  0.4302700    0.00000       Uiso       1.00
      C514          C  0.8381200  0.1149900  0.5955100    0.00000       Uiso       1.00
      H515          H  0.0388500  0.9737000  0.4082500    0.00000       Uiso       1.00
      H516          H  0.0290500  0.0296100  0.4271600    0.00000       Uiso       1.00
      H517          H  0.9829300  0.9923430  0.4183300    0.00000       Uiso       1.00
      H518          H  0.8161200  0.1361300  0.6163200    0.00000       Uiso       1.00
      H519          H  0.8239700  0.0808900  0.5947200    0.00000       Uiso       1.00
      H520          H  0.8379400  0.1284700  0.5611400    0.00000       Uiso       1.00
      H521          H  0.7651900  0.9282700  0.5726600    0.00000       Uiso       1.00
      H522          H  0.8204500  0.9005900  0.4429600    0.00000       Uiso       1.00
      H523          H  0.8250800  0.9808200  0.5865900    0.00000       Uiso       1.00
      H524          H  0.8803100  0.9520800  0.4574500    0.00000       Uiso       1.00
      C525          C  0.4302030  0.7274310  0.8337490    0.00000       Uiso       1.00
      C526          C  0.3557900  0.4465100  0.9832000    0.00000       Uiso       1.00
      C527          C  0.2894300  0.4069200  0.0081700    0.00000       Uiso       1.00
      B528          B  0.3966500  0.5030300  0.0326200    0.00000       Uiso       1.00
      O529          O  0.4298000  0.5102300  0.9974400    0.00000       Uiso       1.00
      C530          C  0.2906900  0.4323300  0.0476100    0.00000       Uiso       1.00
      C531          C  0.3578900  0.4696200  0.0235400    0.00000       Uiso       1.00
      C532          C  0.3248200  0.4626900  0.0555000    0.00000       Uiso       1.00
      O533          O  0.3991500  0.5245900  0.0764700    0.00000       Uiso       1.00
      C534          C  0.5178100  0.4945700  0.9302700    0.00000       Uiso       1.00
      C535          C  0.3381200  0.6149900  0.0955100    0.00000       Uiso       1.00
      H536          H  0.5388500  0.4737000  0.9082500    0.00000       Uiso       1.00
      H537          H  0.5290500  0.5296100  0.9271600    0.00000       Uiso       1.00
      H538          H  0.4829300  0.4923430  0.9183300    0.00000       Uiso       1.00
      H539          H  0.3161200  0.6361300  0.1163200    0.00000       Uiso       1.00
      H540          H  0.3239700  0.5808900  0.0947200    0.00000       Uiso       1.00
      H541          H  0.3379400  0.6284700  0.0611400    0.00000       Uiso       1.00
      H542          H  0.2651900  0.4282700  0.0726600    0.00000       Uiso       1.00
      H543          H  0.3204500  0.4005900  0.9429600    0.00000       Uiso       1.00
      H544          H  0.3250800  0.4808200  0.0865900    0.00000       Uiso       1.00
      H545          H  0.3803100  0.4520800  0.9574500    0.00000       Uiso       1.00
      C546          C  0.9302030  0.2274310  0.3337490    0.00000       Uiso       1.00
      C547          C  0.6442100  0.0534900  0.9832000    0.00000       Uiso       1.00
      C548          C  0.7105700  0.0930800  0.0081700    0.00000       Uiso       1.00
      B549          B  0.6033500  0.9969700  0.0326200    0.00000       Uiso       1.00
      O550          O  0.5702000  0.9897700  0.9974400    0.00000       Uiso       1.00
      C551          C  0.7093100  0.0676700  0.0476100    0.00000       Uiso       1.00
      C552          C  0.6421100  0.0303800  0.0235400    0.00000       Uiso       1.00
      C553          C  0.6751800  0.0373100  0.0555000    0.00000       Uiso       1.00
      O554          O  0.6008500  0.9754100  0.0764700    0.00000       Uiso       1.00
      C555          C  0.4821900  0.0054300  0.9302700    0.00000       Uiso       1.00
      C556          C  0.6618800  0.8850100  0.0955100    0.00000       Uiso       1.00
      H557          H  0.4611500  0.0263000  0.9082500    0.00000       Uiso       1.00
      H558          H  0.4709500  0.9703900  0.9271600    0.00000       Uiso       1.00
      H559          H  0.5170700  0.0076570  0.9183300    0.00000       Uiso       1.00
      H560          H  0.6838800  0.8638700  0.1163200    0.00000       Uiso       1.00
      H561          H  0.6760300  0.9191100  0.0947200    0.00000       Uiso       1.00
      H562          H  0.6620600  0.8715299  0.0611400    0.00000       Uiso       1.00
      H563          H  0.7348100  0.0717300  0.0726600    0.00000       Uiso       1.00
      H564          H  0.6795500  0.0994100  0.9429600    0.00000       Uiso       1.00
      H565          H  0.6749200  0.0191800  0.0865900    0.00000       Uiso       1.00
      H566          H  0.6196900  0.0479200  0.9574500    0.00000       Uiso       1.00
      C567          C  0.0697970  0.2725690  0.3337490    0.00000       Uiso       1.00
      C568          C  0.1442100  0.5534900  0.4832000    0.00000       Uiso       1.00
      C569          C  0.2105700  0.5930800  0.5081700    0.00000       Uiso       1.00
      B570          B  0.1033500  0.4969700  0.5326200    0.00000       Uiso       1.00
      O571          O  0.0702000  0.4897700  0.4974400    0.00000       Uiso       1.00
      C572          C  0.2093100  0.5676700  0.5476100    0.00000       Uiso       1.00
      C573          C  0.1421100  0.5303800  0.5235400    0.00000       Uiso       1.00
      C574          C  0.1751800  0.5373100  0.5555000    0.00000       Uiso       1.00
      O575          O  0.1008500  0.4754100  0.5764700    0.00000       Uiso       1.00
      C576          C  0.9821900  0.5054300  0.4302700    0.00000       Uiso       1.00
      C577          C  0.1618800  0.3850100  0.5955100    0.00000       Uiso       1.00
      H578          H  0.9611500  0.5263000  0.4082500    0.00000       Uiso       1.00
      H579          H  0.9709500  0.4703900  0.4271600    0.00000       Uiso       1.00
      H580          H  0.0170700  0.5076570  0.4183300    0.00000       Uiso       1.00
      H581          H  0.1838800  0.3638700  0.6163200    0.00000       Uiso       1.00
      H582          H  0.1760300  0.4191100  0.5947200    0.00000       Uiso       1.00
      H583          H  0.1620600  0.3715300  0.5611400    0.00000       Uiso       1.00
      H584          H  0.2348100  0.5717300  0.5726600    0.00000       Uiso       1.00
      H585          H  0.1795500  0.5994100  0.4429600    0.00000       Uiso       1.00
      H586          H  0.1749200  0.5191800  0.5865900    0.00000       Uiso       1.00
      H587          H  0.1196900  0.5479200  0.4574500    0.00000       Uiso       1.00
      C588          C  0.5697970  0.7725690  0.8337490    0.00000       Uiso       1.00
      C589          C  0.3557900  0.5534900  0.5168000    0.00000       Uiso       1.00
      C590          C  0.2894300  0.5930800  0.4918300    0.00000       Uiso       1.00
      B591          B  0.3966500  0.4969700  0.4673800    0.00000       Uiso       1.00
      O592          O  0.4298000  0.4897700  0.5025600    0.00000       Uiso       1.00
      C593          C  0.2906900  0.5676700  0.4523900    0.00000       Uiso       1.00
      C594          C  0.3578900  0.5303800  0.4764600    0.00000       Uiso       1.00
      C595          C  0.3248200  0.5373100  0.4445000    0.00000       Uiso       1.00
      O596          O  0.3991500  0.4754100  0.4235300    0.00000       Uiso       1.00
      C597          C  0.5178100  0.5054300  0.5697300    0.00000       Uiso       1.00
      C598          C  0.3381200  0.3850100  0.4044900    0.00000       Uiso       1.00
      H599          H  0.5388500  0.5263000  0.5917500    0.00000       Uiso       1.00
      H600          H  0.5290500  0.4703900  0.5728400    0.00000       Uiso       1.00
      H601          H  0.4829300  0.5076570  0.5816700    0.00000       Uiso       1.00
      H602          H  0.3161200  0.3638700  0.3836800    0.00000       Uiso       1.00
      H603          H  0.3239700  0.4191100  0.4052800    0.00000       Uiso       1.00
      H604          H  0.3379400  0.3715300  0.4388600    0.00000       Uiso       1.00
      H605          H  0.2651900  0.5717300  0.4273400    0.00000       Uiso       1.00
      H606          H  0.3204500  0.5994100  0.5570400    0.00000       Uiso       1.00
      H607          H  0.3250800  0.5191800  0.4134100    0.00000       Uiso       1.00
      H608          H  0.3803100  0.5479200  0.5425500    0.00000       Uiso       1.00
      C609          C  0.9302030  0.7725690  0.1662510    0.00000       Uiso       1.00
      C610          C  0.8557900  0.0534900  0.0168000    0.00000       Uiso       1.00
      C611          C  0.7894300  0.0930800  0.9918300    0.00000       Uiso       1.00
      B612          B  0.8966500  0.9969700  0.9673800    0.00000       Uiso       1.00
      O613          O  0.9298000  0.9897700  0.0025600    0.00000       Uiso       1.00
      C614          C  0.7906900  0.0676700  0.9523900    0.00000       Uiso       1.00
      C615          C  0.8578900  0.0303800  0.9764600    0.00000       Uiso       1.00
      C616          C  0.8248200  0.0373100  0.9445000    0.00000       Uiso       1.00
      O617          O  0.8991500  0.9754100  0.9235300    0.00000       Uiso       1.00
      C618          C  0.0178100  0.0054300  0.0697300    0.00000       Uiso       1.00
      C619          C  0.8381200  0.8850100  0.9044900    0.00000       Uiso       1.00
      H620          H  0.0388500  0.0263000  0.0917500    0.00000       Uiso       1.00
      H621          H  0.0290500  0.9703900  0.0728400    0.00000       Uiso       1.00
      H622          H  0.9829300  0.0076570  0.0816700    0.00000       Uiso       1.00
      H623          H  0.8161200  0.8638700  0.8836800    0.00000       Uiso       1.00
      H624          H  0.8239700  0.9191100  0.9052800    0.00000       Uiso       1.00
      H625          H  0.8379400  0.8715299  0.9388600    0.00000       Uiso       1.00
      H626          H  0.7651900  0.0717300  0.9273400    0.00000       Uiso       1.00
      H627          H  0.8204500  0.0994100  0.0570400    0.00000       Uiso       1.00
      H628          H  0.8250800  0.0191800  0.9134100    0.00000       Uiso       1.00
      H629          H  0.8803100  0.0479200  0.0425500    0.00000       Uiso       1.00
      C630          C  0.4302030  0.2725690  0.6662510    0.00000       Uiso       1.00
      C631          C  0.1442100  0.4465100  0.0168000    0.00000       Uiso       1.00
      C632          C  0.2105700  0.4069200  0.9918300    0.00000       Uiso       1.00
      B633          B  0.1033500  0.5030300  0.9673800    0.00000       Uiso       1.00
      O634          O  0.0702000  0.5102300  0.0025600    0.00000       Uiso       1.00
      C635          C  0.2093100  0.4323300  0.9523900    0.00000       Uiso       1.00
      C636          C  0.1421100  0.4696200  0.9764600    0.00000       Uiso       1.00
      C637          C  0.1751800  0.4626900  0.9445000    0.00000       Uiso       1.00
      O638          O  0.1008500  0.5245900  0.9235300    0.00000       Uiso       1.00
      C639          C  0.9821900  0.4945700  0.0697300    0.00000       Uiso       1.00
      C640          C  0.1618800  0.6149900  0.9044900    0.00000       Uiso       1.00
      H641          H  0.9611500  0.4737000  0.0917500    0.00000       Uiso       1.00
      H642          H  0.9709500  0.5296100  0.0728400    0.00000       Uiso       1.00
      H643          H  0.0170700  0.4923430  0.0816700    0.00000       Uiso       1.00
      H644          H  0.1838800  0.6361300  0.8836800    0.00000       Uiso       1.00
      H645          H  0.1760300  0.5808900  0.9052800    0.00000       Uiso       1.00
      H646          H  0.1620600  0.6284700  0.9388600    0.00000       Uiso       1.00
      H647          H  0.2348100  0.4282700  0.9273400    0.00000       Uiso       1.00
      H648          H  0.1795500  0.4005900  0.0570400    0.00000       Uiso       1.00
      H649          H  0.1749200  0.4808200  0.9134100    0.00000       Uiso       1.00
      H650          H  0.1196900  0.4520800  0.0425500    0.00000       Uiso       1.00
      C651          C  0.5697970  0.2274310  0.6662510    0.00000       Uiso       1.00
      C652          C  0.6442100  0.9465100  0.5168000    0.00000       Uiso       1.00
      C653          C  0.7105700  0.9069200  0.4918300    0.00000       Uiso       1.00
      B654          B  0.6033500  0.0030300  0.4673800    0.00000       Uiso       1.00
      O655          O  0.5702000  0.0102300  0.5025600    0.00000       Uiso       1.00
      C656          C  0.7093100  0.9323300  0.4523900    0.00000       Uiso       1.00
      C657          C  0.6421100  0.9696200  0.4764600    0.00000       Uiso       1.00
      C658          C  0.6751800  0.9626899  0.4445000    0.00000       Uiso       1.00
      O659          O  0.6008500  0.0245900  0.4235300    0.00000       Uiso       1.00
      C660          C  0.4821900  0.9945700  0.5697300    0.00000       Uiso       1.00
      C661          C  0.6618800  0.1149900  0.4044900    0.00000       Uiso       1.00
      H662          H  0.4611500  0.9737000  0.5917500    0.00000       Uiso       1.00
      H663          H  0.4709500  0.0296100  0.5728400    0.00000       Uiso       1.00
      H664          H  0.5170700  0.9923430  0.5816700    0.00000       Uiso       1.00
      H665          H  0.6838800  0.1361300  0.3836800    0.00000       Uiso       1.00
      H666          H  0.6760300  0.0808900  0.4052800    0.00000       Uiso       1.00
      H667          H  0.6620600  0.1284700  0.4388600    0.00000       Uiso       1.00
      H668          H  0.7348100  0.9282700  0.4273400    0.00000       Uiso       1.00
      H669          H  0.6795500  0.9005900  0.5570400    0.00000       Uiso       1.00
      H670          H  0.6749200  0.9808200  0.4134100    0.00000       Uiso       1.00
      H671          H  0.6196900  0.9520800  0.5425500    0.00000       Uiso       1.00
      C672          C  0.0697970  0.7274310  0.1662510    0.00000       Uiso       1.00
      C673          C  0.9465100  0.4832000  0.8557900    0.00000       Uiso       1.00
      C674          C  0.9069200  0.5081700  0.7894300    0.00000       Uiso       1.00
      B675          B  0.0030300  0.5326200  0.8966500    0.00000       Uiso       1.00
      O676          O  0.0102300  0.4974400  0.9298000    0.00000       Uiso       1.00
      C677          C  0.9323300  0.5476100  0.7906900    0.00000       Uiso       1.00
      C678          C  0.9696200  0.5235400  0.8578900    0.00000       Uiso       1.00
      C679          C  0.9626899  0.5555000  0.8248200    0.00000       Uiso       1.00
      O680          O  0.0245900  0.5764700  0.8991500    0.00000       Uiso       1.00
      C681          C  0.9945700  0.4302700  0.0178100    0.00000       Uiso       1.00
      C682          C  0.1149900  0.5955100  0.8381200    0.00000       Uiso       1.00
      H683          H  0.9737000  0.4082500  0.0388500    0.00000       Uiso       1.00
      H684          H  0.0296100  0.4271600  0.0290500    0.00000       Uiso       1.00
      H685          H  0.9923430  0.4183300  0.9829300    0.00000       Uiso       1.00
      H686          H  0.1361300  0.6163200  0.8161200    0.00000       Uiso       1.00
      H687          H  0.0808900  0.5947200  0.8239700    0.00000       Uiso       1.00
      H688          H  0.1284700  0.5611400  0.8379400    0.00000       Uiso       1.00
      H689          H  0.9282700  0.5726600  0.7651900    0.00000       Uiso       1.00
      H690          H  0.9005900  0.4429600  0.8204500    0.00000       Uiso       1.00
      H691          H  0.9808200  0.5865900  0.8250800    0.00000       Uiso       1.00
      H692          H  0.9520800  0.4574500  0.8803100    0.00000       Uiso       1.00
      C693          C  0.7274310  0.8337490  0.4302030    0.00000       Uiso       1.00
      C694          C  0.4465100  0.9832000  0.3557900    0.00000       Uiso       1.00
      C695          C  0.4069200  0.0081700  0.2894300    0.00000       Uiso       1.00
      B696          B  0.5030300  0.0326200  0.3966500    0.00000       Uiso       1.00
      O697          O  0.5102300  0.9974400  0.4298000    0.00000       Uiso       1.00
      C698          C  0.4323300  0.0476100  0.2906900    0.00000       Uiso       1.00
      C699          C  0.4696200  0.0235400  0.3578900    0.00000       Uiso       1.00
      C700          C  0.4626900  0.0555000  0.3248200    0.00000       Uiso       1.00
      O701          O  0.5245900  0.0764700  0.3991500    0.00000       Uiso       1.00
      C702          C  0.4945700  0.9302700  0.5178100    0.00000       Uiso       1.00
      C703          C  0.6149900  0.0955100  0.3381200    0.00000       Uiso       1.00
      H704          H  0.4737000  0.9082500  0.5388500    0.00000       Uiso       1.00
      H705          H  0.5296100  0.9271600  0.5290500    0.00000       Uiso       1.00
      H706          H  0.4923430  0.9183300  0.4829300    0.00000       Uiso       1.00
      H707          H  0.6361300  0.1163200  0.3161200    0.00000       Uiso       1.00
      H708          H  0.5808900  0.0947200  0.3239700    0.00000       Uiso       1.00
      H709          H  0.6284700  0.0611400  0.3379400    0.00000       Uiso       1.00
      H710          H  0.4282700  0.0726600  0.2651900    0.00000       Uiso       1.00
      H711          H  0.4005900  0.9429600  0.3204500    0.00000       Uiso       1.00
      H712          H  0.4808200  0.0865900  0.3250800    0.00000       Uiso       1.00
      H713          H  0.4520800  0.9574500  0.3803100    0.00000       Uiso       1.00
      C714          C  0.2274310  0.3337490  0.9302030    0.00000       Uiso       1.00
      C715          C  0.0534900  0.9832000  0.6442100    0.00000       Uiso       1.00
      C716          C  0.0930800  0.0081700  0.7105700    0.00000       Uiso       1.00
      B717          B  0.9969700  0.0326200  0.6033500    0.00000       Uiso       1.00
      O718          O  0.9897700  0.9974400  0.5702000    0.00000       Uiso       1.00
      C719          C  0.0676700  0.0476100  0.7093100    0.00000       Uiso       1.00
      C720          C  0.0303800  0.0235400  0.6421100    0.00000       Uiso       1.00
      C721          C  0.0373100  0.0555000  0.6751800    0.00000       Uiso       1.00
      O722          O  0.9754100  0.0764700  0.6008500    0.00000       Uiso       1.00
      C723          C  0.0054300  0.9302700  0.4821900    0.00000       Uiso       1.00
      C724          C  0.8850100  0.0955100  0.6618800    0.00000       Uiso       1.00
      H725          H  0.0263000  0.9082500  0.4611500    0.00000       Uiso       1.00
      H726          H  0.9703900  0.9271600  0.4709500    0.00000       Uiso       1.00
      H727          H  0.0076570  0.9183300  0.5170700    0.00000       Uiso       1.00
      H728          H  0.8638700  0.1163200  0.6838800    0.00000       Uiso       1.00
      H729          H  0.9191100  0.0947200  0.6760300    0.00000       Uiso       1.00
      H730          H  0.8715299  0.0611400  0.6620600    0.00000       Uiso       1.00
      H731          H  0.0717300  0.0726600  0.7348100    0.00000       Uiso       1.00
      H732          H  0.0994100  0.9429600  0.6795500    0.00000       Uiso       1.00
      H733          H  0.0191800  0.0865900  0.6749200    0.00000       Uiso       1.00
      H734          H  0.0479200  0.9574500  0.6196900    0.00000       Uiso       1.00
      C735          C  0.2725690  0.3337490  0.0697970    0.00000       Uiso       1.00
      C736          C  0.5534900  0.4832000  0.1442100    0.00000       Uiso       1.00
      C737          C  0.5930800  0.5081700  0.2105700    0.00000       Uiso       1.00
      B738          B  0.4969700  0.5326200  0.1033500    0.00000       Uiso       1.00
      O739          O  0.4897700  0.4974400  0.0702000    0.00000       Uiso       1.00
      C740          C  0.5676700  0.5476100  0.2093100    0.00000       Uiso       1.00
      C741          C  0.5303800  0.5235400  0.1421100    0.00000       Uiso       1.00
      C742          C  0.5373100  0.5555000  0.1751800    0.00000       Uiso       1.00
      O743          O  0.4754100  0.5764700  0.1008500    0.00000       Uiso       1.00
      C744          C  0.5054300  0.4302700  0.9821900    0.00000       Uiso       1.00
      C745          C  0.3850100  0.5955100  0.1618800    0.00000       Uiso       1.00
      H746          H  0.5263000  0.4082500  0.9611500    0.00000       Uiso       1.00
      H747          H  0.4703900  0.4271600  0.9709500    0.00000       Uiso       1.00
      H748          H  0.5076570  0.4183300  0.0170700    0.00000       Uiso       1.00
      H749          H  0.3638700  0.6163200  0.1838800    0.00000       Uiso       1.00
      H750          H  0.4191100  0.5947200  0.1760300    0.00000       Uiso       1.00
      H751          H  0.3715300  0.5611400  0.1620600    0.00000       Uiso       1.00
      H752          H  0.5717300  0.5726600  0.2348100    0.00000       Uiso       1.00
      H753          H  0.5994100  0.4429600  0.1795500    0.00000       Uiso       1.00
      H754          H  0.5191800  0.5865900  0.1749200    0.00000       Uiso       1.00
      H755          H  0.5479200  0.4574500  0.1196900    0.00000       Uiso       1.00
      C756          C  0.7725690  0.8337490  0.5697970    0.00000       Uiso       1.00
      C757          C  0.5534900  0.5168000  0.3557900    0.00000       Uiso       1.00
      C758          C  0.5930800  0.4918300  0.2894300    0.00000       Uiso       1.00
      B759          B  0.4969700  0.4673800  0.3966500    0.00000       Uiso       1.00
      O760          O  0.4897700  0.5025600  0.4298000    0.00000       Uiso       1.00
      C761          C  0.5676700  0.4523900  0.2906900    0.00000       Uiso       1.00
      C762          C  0.5303800  0.4764600  0.3578900    0.00000       Uiso       1.00
      C763          C  0.5373100  0.4445000  0.3248200    0.00000       Uiso       1.00
      O764          O  0.4754100  0.4235300  0.3991500    0.00000       Uiso       1.00
      C765          C  0.5054300  0.5697300  0.5178100    0.00000       Uiso       1.00
      C766          C  0.3850100  0.4044900  0.3381200    0.00000       Uiso       1.00
      H767          H  0.5263000  0.5917500  0.5388500    0.00000       Uiso       1.00
      H768          H  0.4703900  0.5728400  0.5290500    0.00000       Uiso       1.00
      H769          H  0.5076570  0.5816700  0.4829300    0.00000       Uiso       1.00
      H770          H  0.3638700  0.3836800  0.3161200    0.00000       Uiso       1.00
      H771          H  0.4191100  0.4052800  0.3239700    0.00000       Uiso       1.00
      H772          H  0.3715300  0.4388600  0.3379400    0.00000       Uiso       1.00
      H773          H  0.5717300  0.4273400  0.2651900    0.00000       Uiso       1.00
      H774          H  0.5994100  0.5570400  0.3204500    0.00000       Uiso       1.00
      H775          H  0.5191800  0.4134100  0.3250800    0.00000       Uiso       1.00
      H776          H  0.5479200  0.5425500  0.3803100    0.00000       Uiso       1.00
      C777          C  0.7725690  0.1662510  0.9302030    0.00000       Uiso       1.00
      C778          C  0.0534900  0.0168000  0.8557900    0.00000       Uiso       1.00
      C779          C  0.0930800  0.9918300  0.7894300    0.00000       Uiso       1.00
      B780          B  0.9969700  0.9673800  0.8966500    0.00000       Uiso       1.00
      O781          O  0.9897700  0.0025600  0.9298000    0.00000       Uiso       1.00
      C782          C  0.0676700  0.9523900  0.7906900    0.00000       Uiso       1.00
      C783          C  0.0303800  0.9764600  0.8578900    0.00000       Uiso       1.00
      C784          C  0.0373100  0.9445000  0.8248200    0.00000       Uiso       1.00
      O785          O  0.9754100  0.9235300  0.8991500    0.00000       Uiso       1.00
      C786          C  0.0054300  0.0697300  0.0178100    0.00000       Uiso       1.00
      C787          C  0.8850100  0.9044900  0.8381200    0.00000       Uiso       1.00
      H788          H  0.0263000  0.0917500  0.0388500    0.00000       Uiso       1.00
      H789          H  0.9703900  0.0728400  0.0290500    0.00000       Uiso       1.00
      H790          H  0.0076570  0.0816700  0.9829300    0.00000       Uiso       1.00
      H791          H  0.8638700  0.8836800  0.8161200    0.00000       Uiso       1.00
      H792          H  0.9191100  0.9052800  0.8239700    0.00000       Uiso       1.00
      H793          H  0.8715299  0.9388600  0.8379400    0.00000       Uiso       1.00
      H794          H  0.0717300  0.9273400  0.7651900    0.00000       Uiso       1.00
      H795          H  0.0994100  0.0570400  0.8204500    0.00000       Uiso       1.00
      H796          H  0.0191800  0.9134100  0.8250800    0.00000       Uiso       1.00
      H797          H  0.0479200  0.0425500  0.8803100    0.00000       Uiso       1.00
      C798          C  0.2725690  0.6662510  0.4302030    0.00000       Uiso       1.00
      C799          C  0.4465100  0.0168000  0.1442100    0.00000       Uiso       1.00
      C800          C  0.4069200  0.9918300  0.2105700    0.00000       Uiso       1.00
      B801          B  0.5030300  0.9673800  0.1033500    0.00000       Uiso       1.00
      O802          O  0.5102300  0.0025600  0.0702000    0.00000       Uiso       1.00
      C803          C  0.4323300  0.9523900  0.2093100    0.00000       Uiso       1.00
      C804          C  0.4696200  0.9764600  0.1421100    0.00000       Uiso       1.00
      C805          C  0.4626900  0.9445000  0.1751800    0.00000       Uiso       1.00
      O806          O  0.5245900  0.9235300  0.1008500    0.00000       Uiso       1.00
      C807          C  0.4945700  0.0697300  0.9821900    0.00000       Uiso       1.00
      C808          C  0.6149900  0.9044900  0.1618800    0.00000       Uiso       1.00
      H809          H  0.4737000  0.0917500  0.9611500    0.00000       Uiso       1.00
      H810          H  0.5296100  0.0728400  0.9709500    0.00000       Uiso       1.00
      H811          H  0.4923430  0.0816700  0.0170700    0.00000       Uiso       1.00
      H812          H  0.6361300  0.8836800  0.1838800    0.00000       Uiso       1.00
      H813          H  0.5808900  0.9052800  0.1760300    0.00000       Uiso       1.00
      H814          H  0.6284700  0.9388600  0.1620600    0.00000       Uiso       1.00
      H815          H  0.4282700  0.9273400  0.2348100    0.00000       Uiso       1.00
      H816          H  0.4005900  0.0570400  0.1795500    0.00000       Uiso       1.00
      H817          H  0.4808200  0.9134100  0.1749200    0.00000       Uiso       1.00
      H818          H  0.4520800  0.0425500  0.1196900    0.00000       Uiso       1.00
      C819          C  0.2274310  0.6662510  0.5697970    0.00000       Uiso       1.00
      C820          C  0.9465100  0.5168000  0.6442100    0.00000       Uiso       1.00
      C821          C  0.9069200  0.4918300  0.7105700    0.00000       Uiso       1.00
      B822          B  0.0030300  0.4673800  0.6033500    0.00000       Uiso       1.00
      O823          O  0.0102300  0.5025600  0.5702000    0.00000       Uiso       1.00
      C824          C  0.9323300  0.4523900  0.7093100    0.00000       Uiso       1.00
      C825          C  0.9696200  0.4764600  0.6421100    0.00000       Uiso       1.00
      C826          C  0.9626899  0.4445000  0.6751800    0.00000       Uiso       1.00
      O827          O  0.0245900  0.4235300  0.6008500    0.00000       Uiso       1.00
      C828          C  0.9945700  0.5697300  0.4821900    0.00000       Uiso       1.00
      C829          C  0.1149900  0.4044900  0.6618800    0.00000       Uiso       1.00
      H830          H  0.9737000  0.5917500  0.4611500    0.00000       Uiso       1.00
      H831          H  0.0296100  0.5728400  0.4709500    0.00000       Uiso       1.00
      H832          H  0.9923430  0.5816700  0.5170700    0.00000       Uiso       1.00
      H833          H  0.1361300  0.3836800  0.6838800    0.00000       Uiso       1.00
      H834          H  0.0808900  0.4052800  0.6760300    0.00000       Uiso       1.00
      H835          H  0.1284700  0.4388600  0.6620600    0.00000       Uiso       1.00
      H836          H  0.9282700  0.4273400  0.7348100    0.00000       Uiso       1.00
      H837          H  0.9005900  0.5570400  0.6795500    0.00000       Uiso       1.00
      H838          H  0.9808200  0.4134100  0.6749200    0.00000       Uiso       1.00
      H839          H  0.9520800  0.5425500  0.6196900    0.00000       Uiso       1.00
      C840          C  0.7274310  0.1662510  0.0697970    0.00000       Uiso       1.00
      C841          C  0.4832000  0.8557900  0.9465100    0.00000       Uiso       1.00
      C842          C  0.5081700  0.7894300  0.9069200    0.00000       Uiso       1.00
      B843          B  0.5326200  0.8966500  0.0030300    0.00000       Uiso       1.00
      O844          O  0.4974400  0.9298000  0.0102300    0.00000       Uiso       1.00
      C845          C  0.5476100  0.7906900  0.9323300    0.00000       Uiso       1.00
      C846          C  0.5235400  0.8578900  0.9696200    0.00000       Uiso       1.00
      C847          C  0.5555000  0.8248200  0.9626899    0.00000       Uiso       1.00
      O848          O  0.5764700  0.8991500  0.0245900    0.00000       Uiso       1.00
      C849          C  0.4302700  0.0178100  0.9945700    0.00000       Uiso       1.00
      C850          C  0.5955100  0.8381200  0.1149900    0.00000       Uiso       1.00
      H851          H  0.4082500  0.0388500  0.9737000    0.00000       Uiso       1.00
      H852          H  0.4271600  0.0290500  0.0296100    0.00000       Uiso       1.00
      H853          H  0.4183300  0.9829300  0.9923430    0.00000       Uiso       1.00
      H854          H  0.6163200  0.8161200  0.1361300    0.00000       Uiso       1.00
      H855          H  0.5947200  0.8239700  0.0808900    0.00000       Uiso       1.00
      H856          H  0.5611400  0.8379400  0.1284700    0.00000       Uiso       1.00
      H857          H  0.5726600  0.7651900  0.9282700    0.00000       Uiso       1.00
      H858          H  0.4429600  0.8204500  0.9005900    0.00000       Uiso       1.00
      H859          H  0.5865900  0.8250800  0.9808200    0.00000       Uiso       1.00
      H860          H  0.4574500  0.8803100  0.9520800    0.00000       Uiso       1.00
      C861          C  0.8337490  0.4302030  0.7274310    0.00000       Uiso       1.00
      C862          C  0.9832000  0.3557900  0.4465100    0.00000       Uiso       1.00
      C863          C  0.0081700  0.2894300  0.4069200    0.00000       Uiso       1.00
      B864          B  0.0326200  0.3966500  0.5030300    0.00000       Uiso       1.00
      O865          O  0.9974400  0.4298000  0.5102300    0.00000       Uiso       1.00
      C866          C  0.0476100  0.2906900  0.4323300    0.00000       Uiso       1.00
      C867          C  0.0235400  0.3578900  0.4696200    0.00000       Uiso       1.00
      C868          C  0.0555000  0.3248200  0.4626900    0.00000       Uiso       1.00
      O869          O  0.0764700  0.3991500  0.5245900    0.00000       Uiso       1.00
      C870          C  0.9302700  0.5178100  0.4945700    0.00000       Uiso       1.00
      C871          C  0.0955100  0.3381200  0.6149900    0.00000       Uiso       1.00
      H872          H  0.9082500  0.5388500  0.4737000    0.00000       Uiso       1.00
      H873          H  0.9271600  0.5290500  0.5296100    0.00000       Uiso       1.00
      H874          H  0.9183300  0.4829300  0.4923430    0.00000       Uiso       1.00
      H875          H  0.1163200  0.3161200  0.6361300    0.00000       Uiso       1.00
      H876          H  0.0947200  0.3239700  0.5808900    0.00000       Uiso       1.00
      H877          H  0.0611400  0.3379400  0.6284700    0.00000       Uiso       1.00
      H878          H  0.0726600  0.2651900  0.4282700    0.00000       Uiso       1.00
      H879          H  0.9429600  0.3204500  0.4005900    0.00000       Uiso       1.00
      H880          H  0.0865900  0.3250800  0.4808200    0.00000       Uiso       1.00
      H881          H  0.9574500  0.3803100  0.4520800    0.00000       Uiso       1.00
      C882          C  0.3337490  0.9302030  0.2274310    0.00000       Uiso       1.00
      C883          C  0.9832000  0.6442100  0.0534900    0.00000       Uiso       1.00
      C884          C  0.0081700  0.7105700  0.0930800    0.00000       Uiso       1.00
      B885          B  0.0326200  0.6033500  0.9969700    0.00000       Uiso       1.00
      O886          O  0.9974400  0.5702000  0.9897700    0.00000       Uiso       1.00
      C887          C  0.0476100  0.7093100  0.0676700    0.00000       Uiso       1.00
      C888          C  0.0235400  0.6421100  0.0303800    0.00000       Uiso       1.00
      C889          C  0.0555000  0.6751800  0.0373100    0.00000       Uiso       1.00
      O890          O  0.0764700  0.6008500  0.9754100    0.00000       Uiso       1.00
      C891          C  0.9302700  0.4821900  0.0054300    0.00000       Uiso       1.00
      C892          C  0.0955100  0.6618800  0.8850100    0.00000       Uiso       1.00
      H893          H  0.9082500  0.4611500  0.0263000    0.00000       Uiso       1.00
      H894          H  0.9271600  0.4709500  0.9703900    0.00000       Uiso       1.00
      H895          H  0.9183300  0.5170700  0.0076570    0.00000       Uiso       1.00
      H896          H  0.1163200  0.6838800  0.8638700    0.00000       Uiso       1.00
      H897          H  0.0947200  0.6760300  0.9191100    0.00000       Uiso       1.00
      H898          H  0.0611400  0.6620600  0.8715299    0.00000       Uiso       1.00
      H899          H  0.0726600  0.7348100  0.0717300    0.00000       Uiso       1.00
      H900          H  0.9429600  0.6795500  0.0994100    0.00000       Uiso       1.00
      H901          H  0.0865900  0.6749200  0.0191800    0.00000       Uiso       1.00
      H902          H  0.9574500  0.6196900  0.0479200    0.00000       Uiso       1.00
      C903          C  0.3337490  0.0697970  0.2725690    0.00000       Uiso       1.00
      C904          C  0.4832000  0.1442100  0.5534900    0.00000       Uiso       1.00
      C905          C  0.5081700  0.2105700  0.5930800    0.00000       Uiso       1.00
      B906          B  0.5326200  0.1033500  0.4969700    0.00000       Uiso       1.00
      O907          O  0.4974400  0.0702000  0.4897700    0.00000       Uiso       1.00
      C908          C  0.5476100  0.2093100  0.5676700    0.00000       Uiso       1.00
      C909          C  0.5235400  0.1421100  0.5303800    0.00000       Uiso       1.00
      C910          C  0.5555000  0.1751800  0.5373100    0.00000       Uiso       1.00
      O911          O  0.5764700  0.1008500  0.4754100    0.00000       Uiso       1.00
      C912          C  0.4302700  0.9821900  0.5054300    0.00000       Uiso       1.00
      C913          C  0.5955100  0.1618800  0.3850100    0.00000       Uiso       1.00
      H914          H  0.4082500  0.9611500  0.5263000    0.00000       Uiso       1.00
      H915          H  0.4271600  0.9709500  0.4703900    0.00000       Uiso       1.00
      H916          H  0.4183300  0.0170700  0.5076570    0.00000       Uiso       1.00
      H917          H  0.6163200  0.1838800  0.3638700    0.00000       Uiso       1.00
      H918          H  0.5947200  0.1760300  0.4191100    0.00000       Uiso       1.00
      H919          H  0.5611400  0.1620600  0.3715300    0.00000       Uiso       1.00
      H920          H  0.5726600  0.2348100  0.5717300    0.00000       Uiso       1.00
      H921          H  0.4429600  0.1795500  0.5994100    0.00000       Uiso       1.00
      H922          H  0.5865900  0.1749200  0.5191800    0.00000       Uiso       1.00
      H923          H  0.4574500  0.1196900  0.5479200    0.00000       Uiso       1.00
      C924          C  0.8337490  0.5697970  0.7725690    0.00000       Uiso       1.00
      C925          C  0.5168000  0.3557900  0.5534900    0.00000       Uiso       1.00
      C926          C  0.4918300  0.2894300  0.5930800    0.00000       Uiso       1.00
      B927          B  0.4673800  0.3966500  0.4969700    0.00000       Uiso       1.00
      O928          O  0.5025600  0.4298000  0.4897700    0.00000       Uiso       1.00
      C929          C  0.4523900  0.2906900  0.5676700    0.00000       Uiso       1.00
      C930          C  0.4764600  0.3578900  0.5303800    0.00000       Uiso       1.00
      C931          C  0.4445000  0.3248200  0.5373100    0.00000       Uiso       1.00
      O932          O  0.4235300  0.3991500  0.4754100    0.00000       Uiso       1.00
      C933          C  0.5697300  0.5178100  0.5054300    0.00000       Uiso       1.00
      C934          C  0.4044900  0.3381200  0.3850100    0.00000       Uiso       1.00
      H935          H  0.5917500  0.5388500  0.5263000    0.00000       Uiso       1.00
      H936          H  0.5728400  0.5290500  0.4703900    0.00000       Uiso       1.00
      H937          H  0.5816700  0.4829300  0.5076570    0.00000       Uiso       1.00
      H938          H  0.3836800  0.3161200  0.3638700    0.00000       Uiso       1.00
      H939          H  0.4052800  0.3239700  0.4191100    0.00000       Uiso       1.00
      H940          H  0.4388600  0.3379400  0.3715300    0.00000       Uiso       1.00
      H941          H  0.4273400  0.2651900  0.5717300    0.00000       Uiso       1.00
      H942          H  0.5570400  0.3204500  0.5994100    0.00000       Uiso       1.00
      H943          H  0.4134100  0.3250800  0.5191800    0.00000       Uiso       1.00
      H944          H  0.5425500  0.3803100  0.5479200    0.00000       Uiso       1.00
      C945          C  0.1662510  0.9302030  0.7725690    0.00000       Uiso       1.00
      C946          C  0.0168000  0.8557900  0.0534900    0.00000       Uiso       1.00
      C947          C  0.9918300  0.7894300  0.0930800    0.00000       Uiso       1.00
      B948          B  0.9673800  0.8966500  0.9969700    0.00000       Uiso       1.00
      O949          O  0.0025600  0.9298000  0.9897700    0.00000       Uiso       1.00
      C950          C  0.9523900  0.7906900  0.0676700    0.00000       Uiso       1.00
      C951          C  0.9764600  0.8578900  0.0303800    0.00000       Uiso       1.00
      C952          C  0.9445000  0.8248200  0.0373100    0.00000       Uiso       1.00
      O953          O  0.9235300  0.8991500  0.9754100    0.00000       Uiso       1.00
      C954          C  0.0697300  0.0178100  0.0054300    0.00000       Uiso       1.00
      C955          C  0.9044900  0.8381200  0.8850100    0.00000       Uiso       1.00
      H956          H  0.0917500  0.0388500  0.0263000    0.00000       Uiso       1.00
      H957          H  0.0728400  0.0290500  0.9703900    0.00000       Uiso       1.00
      H958          H  0.0816700  0.9829300  0.0076570    0.00000       Uiso       1.00
      H959          H  0.8836800  0.8161200  0.8638700    0.00000       Uiso       1.00
      H960          H  0.9052800  0.8239700  0.9191100    0.00000       Uiso       1.00
      H961          H  0.9388600  0.8379400  0.8715299    0.00000       Uiso       1.00
      H962          H  0.9273400  0.7651900  0.0717300    0.00000       Uiso       1.00
      H963          H  0.0570400  0.8204500  0.0994100    0.00000       Uiso       1.00
      H964          H  0.9134100  0.8250800  0.0191800    0.00000       Uiso       1.00
      H965          H  0.0425500  0.8803100  0.0479200    0.00000       Uiso       1.00
      C966          C  0.6662510  0.4302030  0.2725690    0.00000       Uiso       1.00
      C967          C  0.0168000  0.1442100  0.4465100    0.00000       Uiso       1.00
      C968          C  0.9918300  0.2105700  0.4069200    0.00000       Uiso       1.00
      B969          B  0.9673800  0.1033500  0.5030300    0.00000       Uiso       1.00
      O970          O  0.0025600  0.0702000  0.5102300    0.00000       Uiso       1.00
      C971          C  0.9523900  0.2093100  0.4323300    0.00000       Uiso       1.00
      C972          C  0.9764600  0.1421100  0.4696200    0.00000       Uiso       1.00
      C973          C  0.9445000  0.1751800  0.4626900    0.00000       Uiso       1.00
      O974          O  0.9235300  0.1008500  0.5245900    0.00000       Uiso       1.00
      C975          C  0.0697300  0.9821900  0.4945700    0.00000       Uiso       1.00
      C976          C  0.9044900  0.1618800  0.6149900    0.00000       Uiso       1.00
      H977          H  0.0917500  0.9611500  0.4737000    0.00000       Uiso       1.00
      H978          H  0.0728400  0.9709500  0.5296100    0.00000       Uiso       1.00
      H979          H  0.0816700  0.0170700  0.4923430    0.00000       Uiso       1.00
      H980          H  0.8836800  0.1838800  0.6361300    0.00000       Uiso       1.00
      H981          H  0.9052800  0.1760300  0.5808900    0.00000       Uiso       1.00
      H982          H  0.9388600  0.1620600  0.6284700    0.00000       Uiso       1.00
      H983          H  0.9273400  0.2348100  0.4282700    0.00000       Uiso       1.00
      H984          H  0.0570400  0.1795500  0.4005900    0.00000       Uiso       1.00
      H985          H  0.9134100  0.1749200  0.4808200    0.00000       Uiso       1.00
      H986          H  0.0425500  0.1196900  0.4520800    0.00000       Uiso       1.00
      C987          C  0.6662510  0.5697970  0.2274310    0.00000       Uiso       1.00
      C988          C  0.5168000  0.6442100  0.9465100    0.00000       Uiso       1.00
      C989          C  0.4918300  0.7105700  0.9069200    0.00000       Uiso       1.00
      B990          B  0.4673800  0.6033500  0.0030300    0.00000       Uiso       1.00
      O991          O  0.5025600  0.5702000  0.0102300    0.00000       Uiso       1.00
      C992          C  0.4523900  0.7093100  0.9323300    0.00000       Uiso       1.00
      C993          C  0.4764600  0.6421100  0.9696200    0.00000       Uiso       1.00
      C994          C  0.4445000  0.6751800  0.9626899    0.00000       Uiso       1.00
      O995          O  0.4235300  0.6008500  0.0245900    0.00000       Uiso       1.00
      C996          C  0.5697300  0.4821900  0.9945700    0.00000       Uiso       1.00
      C997          C  0.4044900  0.6618800  0.1149900    0.00000       Uiso       1.00
      H998          H  0.5917500  0.4611500  0.9737000    0.00000       Uiso       1.00
      H999          H  0.5728400  0.4709500  0.0296100    0.00000       Uiso       1.00
     H1000          H  0.5816700  0.5170700  0.9923430    0.00000       Uiso       1.00
     H1001          H  0.3836800  0.6838800  0.1361300    0.00000       Uiso       1.00
     H1002          H  0.4052800  0.6760300  0.0808900    0.00000       Uiso       1.00
     H1003          H  0.4388600  0.6620600  0.1284700    0.00000       Uiso       1.00
     H1004          H  0.4273400  0.7348100  0.9282700    0.00000       Uiso       1.00
     H1005          H  0.5570400  0.6795500  0.9005900    0.00000       Uiso       1.00
     H1006          H  0.4134100  0.6749200  0.9808200    0.00000       Uiso       1.00
     H1007          H  0.5425500  0.6196900  0.9520800    0.00000       Uiso       1.00
     C1008          C  0.1662510  0.0697970  0.7274310    0.00000       Uiso       1.00
     Si100         Si  0.7649200  0.7350800  0.2649200    0.00000       Uiso       1.00
     C1010          C  0.7286800  0.7713200  0.2286800    0.00000       Uiso       1.00
     C1011          C  0.8644600  0.6355400  0.3644600    0.00000       Uiso       1.00
     Si101         Si  0.8282100  0.6717900  0.3282100    0.00000       Uiso       1.00
     Si101         Si  0.2649200  0.2350800  0.7649200    0.00000       Uiso       1.00
     C1014          C  0.2286800  0.2713200  0.7286800    0.00000       Uiso       1.00
     C1015          C  0.3644600  0.1355400  0.8644600    0.00000       Uiso       1.00
     Si101         Si  0.3282100  0.1717900  0.8282100    0.00000       Uiso       1.00
     Si101         Si  0.7350800  0.2649200  0.7649200    0.00000       Uiso       1.00
     C1018          C  0.7713200  0.2286800  0.7286800    0.00000       Uiso       1.00
     C1019          C  0.6355400  0.3644600  0.8644600    0.00000       Uiso       1.00
     Si102         Si  0.6717900  0.3282100  0.8282100    0.00000       Uiso       1.00
     Si102         Si  0.2350800  0.7649200  0.2649200    0.00000       Uiso       1.00
     C1022          C  0.2713200  0.7286800  0.2286800    0.00000       Uiso       1.00
     C1023          C  0.1355400  0.8644600  0.3644600    0.00000       Uiso       1.00
     Si102         Si  0.1717900  0.8282100  0.3282100    0.00000       Uiso       1.00
     Si102         Si  0.2350800  0.2350800  0.2350800    0.00000       Uiso       1.00
     C1026          C  0.2713200  0.2713200  0.2713200    0.00000       Uiso       1.00
     C1027          C  0.1355400  0.1355400  0.1355400    0.00000       Uiso       1.00
     Si102         Si  0.1717900  0.1717900  0.1717900    0.00000       Uiso       1.00
     Si102         Si  0.7350800  0.7350800  0.7350800    0.00000       Uiso       1.00
     C1030          C  0.7713200  0.7713200  0.7713200    0.00000       Uiso       1.00
     C1031          C  0.6355400  0.6355400  0.6355400    0.00000       Uiso       1.00
     Si103         Si  0.6717900  0.6717900  0.6717900    0.00000       Uiso       1.00
     Si103         Si  0.2649200  0.7649200  0.7350800    0.00000       Uiso       1.00
     C1034          C  0.2286800  0.7286800  0.7713200    0.00000       Uiso       1.00
     C1035          C  0.3644600  0.8644600  0.6355400    0.00000       Uiso       1.00
     Si103         Si  0.3282100  0.8282100  0.6717900    0.00000       Uiso       1.00
     Si103         Si  0.7649200  0.2649200  0.2350800    0.00000       Uiso       1.00
     C1038          C  0.7286800  0.2286800  0.2713200    0.00000       Uiso       1.00
     C1039          C  0.8644600  0.3644600  0.1355400    0.00000       Uiso       1.00
     Si104         Si  0.8282100  0.3282100  0.1717900    0.00000       Uiso       1.00
     Si104         Si  0.9850800  0.0149200  0.5149200    0.00000       Uiso       1.00
     C1042          C  0.0213200  0.9786800  0.4786800    0.00000       Uiso       1.00
     C1043          C  0.8855400  0.1144600  0.6144600    0.00000       Uiso       1.00
     Si104         Si  0.9217901  0.0782100  0.5782100    0.00000       Uiso       1.00
     Si104         Si  0.4850800  0.5149200  0.0149200    0.00000       Uiso       1.00
     C1046          C  0.5213200  0.4786800  0.9786800    0.00000       Uiso       1.00
     C1047          C  0.3855400  0.6144600  0.1144600    0.00000       Uiso       1.00
     Si104         Si  0.4217900  0.5782100  0.0782100    0.00000       Uiso       1.00
     Si104         Si  0.5149200  0.9850800  0.0149200    0.00000       Uiso       1.00
     C1050          C  0.4786800  0.0213200  0.9786800    0.00000       Uiso       1.00
     C1051          C  0.6144600  0.8855400  0.1144600    0.00000       Uiso       1.00
     Si105         Si  0.5782100  0.9217901  0.0782100    0.00000       Uiso       1.00
     Si105         Si  0.0149200  0.4850800  0.5149200    0.00000       Uiso       1.00
     C1054          C  0.9786800  0.5213200  0.4786800    0.00000       Uiso       1.00
     C1055          C  0.1144600  0.3855400  0.6144600    0.00000       Uiso       1.00
     Si105         Si  0.0782100  0.4217900  0.5782100    0.00000       Uiso       1.00
     Si105         Si  0.4850800  0.4850800  0.4850800    0.00000       Uiso       1.00
     C1058          C  0.5213200  0.5213200  0.5213200    0.00000       Uiso       1.00
     C1059          C  0.3855400  0.3855400  0.3855400    0.00000       Uiso       1.00
     Si106         Si  0.4217900  0.4217900  0.4217900    0.00000       Uiso       1.00
     Si106         Si  0.9850800  0.9850800  0.9850800    0.00000       Uiso       1.00
     C1062          C  0.0213200  0.0213200  0.0213200    0.00000       Uiso       1.00
     C1063          C  0.8855400  0.8855400  0.8855400    0.00000       Uiso       1.00
     Si106         Si  0.9217901  0.9217901  0.9217901    0.00000       Uiso       1.00
     Si106         Si  0.0149200  0.5149200  0.9850800    0.00000       Uiso       1.00
     C1066          C  0.9786800  0.4786800  0.0213200    0.00000       Uiso       1.00
     C1067          C  0.1144600  0.6144600  0.8855400    0.00000       Uiso       1.00
     Si106         Si  0.0782100  0.5782100  0.9217901    0.00000       Uiso       1.00
     Si106         Si  0.5149200  0.0149200  0.4850800    0.00000       Uiso       1.00
     C1070          C  0.4786800  0.9786800  0.5213200    0.00000       Uiso       1.00
     C1071          C  0.6144600  0.1144600  0.3855400    0.00000       Uiso       1.00
     Si107         Si  0.5782100  0.0782100  0.4217900    0.00000       Uiso       1.00
     C1073          C  0.3750000  0.0000000  0.2500000    0.00000       Uiso       1.00
     C1074          C  0.1250000  0.0000000  0.7500000    0.00000       Uiso       1.00
     C1075          C  0.6250000  0.5000000  0.2500000    0.00000       Uiso       1.00
     C1076          C  0.8750000  0.5000000  0.7500000    0.00000       Uiso       1.00
     C1077          C  0.2500000  0.3750000  0.0000000    0.00000       Uiso       1.00
     C1078          C  0.7500000  0.1250000  0.0000000    0.00000       Uiso       1.00
     C1079          C  0.2500000  0.6250000  0.5000000    0.00000       Uiso       1.00
     C1080          C  0.7500000  0.8750000  0.5000000    0.00000       Uiso       1.00
     C1081          C  0.0000000  0.2500000  0.3750000    0.00000       Uiso       1.00
     C1082          C  0.0000000  0.7500000  0.1250000    0.00000       Uiso       1.00
     C1083          C  0.5000000  0.2500000  0.6250000    0.00000       Uiso       1.00
     C1084          C  0.5000000  0.7500000  0.8750000    0.00000       Uiso       1.00
