data_COF-300
_audit_creation_date              0000-00-00
_audit_creation_method            'LanYouShi'
_symmetry_space_group_name_H-M    'P1'
_cell_length_a                    28.1270008
_cell_length_b                    28.1270008
_cell_length_c                    8.8789997
_cell_angle_alpha                 90.0000000
_cell_angle_beta                  90.0000000
_cell_angle_gamma                 90.0000000
loop_
_atom_site_label
_atom_site_type_symbol
_atom_site_fract_x
_atom_site_fract_y
_atom_site_fract_z
_atom_site_U_iso_or_equiv
_atom_site_adp_type
_atom_site_occupancy
        C1          C  0.4618000  0.4699000  0.0249000    0.00000       Uiso       1.00
        C2          C  0.4937000  0.4587000  0.9227999    0.00000       Uiso       1.00
        C3          C  0.4864000  0.4180000  0.8469000    0.00000       Uiso       1.00
        C4          C  0.5320000  0.4893000  0.8987000    0.00000       Uiso       1.00
        N5          N  0.5167000  0.4060000  0.7484000    0.00000       Uiso       1.00
        C6          C  0.5119000  0.3667000  0.6592000    0.00000       Uiso       1.00
        C7          C  0.5513000  0.3529000  0.5852000    0.00000       Uiso       1.00
        C8          C  0.5482000  0.3158000  0.4939000    0.00000       Uiso       1.00
        C9          C  0.5047000  0.2927000  0.4704000    0.00000       Uiso       1.00
       C10          C  0.4657000  0.3057000  0.5498000    0.00000       Uiso       1.00
       C11          C  0.4689000  0.3426000  0.6412000    0.00000       Uiso       1.00
       H12          H  0.4318000  0.4471000  0.0459000    0.00000       Uiso       1.00
       H13          H  0.4563000  0.3957000  0.8689000    0.00000       Uiso       1.00
       H14          H  0.5574000  0.4819000  0.8208000    0.00000       Uiso       1.00
       H15          H  0.5849000  0.3706000  0.5996000    0.00000       Uiso       1.00
       H16          H  0.5803000  0.3052000  0.4444000    0.00000       Uiso       1.00
       H17          H  0.4322000  0.2874000  0.5396000    0.00000       Uiso       1.00
       H18          H  0.4374000  0.3527000  0.6957000    0.00000       Uiso       1.00
       C19          C  0.9618000  0.9699000  0.5249000    0.00000       Uiso       1.00
       C20          C  0.9937001  0.9587000  0.4228000    0.00000       Uiso       1.00
       C21          C  0.9864000  0.9180000  0.3469000    0.00000       Uiso       1.00
       C22          C  0.0320000  0.9893000  0.3987000    0.00000       Uiso       1.00
       N23          N  0.0167000  0.9060000  0.2484000    0.00000       Uiso       1.00
       C24          C  0.0119000  0.8667000  0.1592000    0.00000       Uiso       1.00
       C25          C  0.0513000  0.8529000  0.0852000    0.00000       Uiso       1.00
       C26          C  0.0482000  0.8158000  0.9939000    0.00000       Uiso       1.00
       C27          C  0.0047000  0.7927001  0.9704000    0.00000       Uiso       1.00
       C28          C  0.9657000  0.8057000  0.0498000    0.00000       Uiso       1.00
       C29          C  0.9689000  0.8426000  0.1412000    0.00000       Uiso       1.00
       H30          H  0.9318000  0.9471000  0.5459000    0.00000       Uiso       1.00
       H31          H  0.9563000  0.8957000  0.3689000    0.00000       Uiso       1.00
       H32          H  0.0574000  0.9819000  0.3208000    0.00000       Uiso       1.00
       H33          H  0.0849000  0.8706000  0.0996000    0.00000       Uiso       1.00
       H34          H  0.0803000  0.8051999  0.9444000    0.00000       Uiso       1.00
       H35          H  0.9322000  0.7874001  0.0396000    0.00000       Uiso       1.00
       H36          H  0.9374000  0.8527001  0.1957000    0.00000       Uiso       1.00
       C37          C  0.0382000  0.5301000  0.5249000    0.00000       Uiso       1.00
       C38          C  0.0063000  0.5413000  0.4228000    0.00000       Uiso       1.00
       C39          C  0.0136000  0.5820000  0.3469000    0.00000       Uiso       1.00
       C40          C  0.9680000  0.5107000  0.3987000    0.00000       Uiso       1.00
       N41          N  0.9833000  0.5940000  0.2484000    0.00000       Uiso       1.00
       C42          C  0.9881000  0.6333000  0.1592000    0.00000       Uiso       1.00
       C43          C  0.9487000  0.6471000  0.0852000    0.00000       Uiso       1.00
       C44          C  0.9518000  0.6842000  0.9939000    0.00000       Uiso       1.00
       C45          C  0.9953000  0.7073000  0.9704000    0.00000       Uiso       1.00
       C46          C  0.0343000  0.6943000  0.0498000    0.00000       Uiso       1.00
       C47          C  0.0311000  0.6574000  0.1412000    0.00000       Uiso       1.00
       H48          H  0.0682000  0.5529000  0.5459000    0.00000       Uiso       1.00
       H49          H  0.0437000  0.6043000  0.3689000    0.00000       Uiso       1.00
       H50          H  0.9426001  0.5181000  0.3208000    0.00000       Uiso       1.00
       H51          H  0.9151000  0.6294000  0.0996000    0.00000       Uiso       1.00
       H52          H  0.9197000  0.6948000  0.9444000    0.00000       Uiso       1.00
       H53          H  0.0678000  0.7126000  0.0396000    0.00000       Uiso       1.00
       H54          H  0.0626000  0.6473000  0.1957000    0.00000       Uiso       1.00
       C55          C  0.5382000  0.0301000  0.0249000    0.00000       Uiso       1.00
       C56          C  0.5063000  0.0413000  0.9227999    0.00000       Uiso       1.00
       C57          C  0.5136000  0.0820000  0.8469000    0.00000       Uiso       1.00
       C58          C  0.4680000  0.0107000  0.8987000    0.00000       Uiso       1.00
       N59          N  0.4833000  0.0940000  0.7484000    0.00000       Uiso       1.00
       C60          C  0.4881000  0.1333000  0.6592000    0.00000       Uiso       1.00
       C61          C  0.4487000  0.1471000  0.5852000    0.00000       Uiso       1.00
       C62          C  0.4518000  0.1842000  0.4939000    0.00000       Uiso       1.00
       C63          C  0.4953000  0.2073000  0.4704000    0.00000       Uiso       1.00
       C64          C  0.5343000  0.1943000  0.5498000    0.00000       Uiso       1.00
       C65          C  0.5311000  0.1574000  0.6412000    0.00000       Uiso       1.00
       H66          H  0.5682000  0.0529000  0.0459000    0.00000       Uiso       1.00
       H67          H  0.5437000  0.1043000  0.8689000    0.00000       Uiso       1.00
       H68          H  0.4426000  0.0181000  0.8208000    0.00000       Uiso       1.00
       H69          H  0.4151000  0.1294000  0.5996000    0.00000       Uiso       1.00
       H70          H  0.4197000  0.1948000  0.4444000    0.00000       Uiso       1.00
       H71          H  0.5678000  0.2126000  0.5396000    0.00000       Uiso       1.00
       H72          H  0.5626000  0.1473000  0.6957000    0.00000       Uiso       1.00
       C73          C  0.2801000  0.7117999  0.2749000    0.00000       Uiso       1.00
       C74          C  0.2913000  0.7437000  0.1728000    0.00000       Uiso       1.00
       C75          C  0.3320000  0.7363999  0.0969000    0.00000       Uiso       1.00
       C76          C  0.2607000  0.7820000  0.1487000    0.00000       Uiso       1.00
       N77          N  0.3440000  0.7667000  0.9984000    0.00000       Uiso       1.00
       C78          C  0.3833000  0.7619000  0.9092000    0.00000       Uiso       1.00
       C79          C  0.3971000  0.8013000  0.8352000    0.00000       Uiso       1.00
       C80          C  0.4342000  0.7982000  0.7439000    0.00000       Uiso       1.00
       C81          C  0.4573000  0.7547000  0.7204000    0.00000       Uiso       1.00
       C82          C  0.4443000  0.7157000  0.7998000    0.00000       Uiso       1.00
       C83          C  0.4074000  0.7189000  0.8912000    0.00000       Uiso       1.00
       H84          H  0.3029000  0.6818000  0.2959000    0.00000       Uiso       1.00
       H85          H  0.3543000  0.7063000  0.1189000    0.00000       Uiso       1.00
       H86          H  0.2681000  0.8074000  0.0708000    0.00000       Uiso       1.00
       H87          H  0.3794000  0.8349000  0.8496000    0.00000       Uiso       1.00
       H88          H  0.4448000  0.8303000  0.6944000    0.00000       Uiso       1.00
       H89          H  0.4626000  0.6822000  0.7896000    0.00000       Uiso       1.00
       H90          H  0.3973000  0.6874000  0.9456999    0.00000       Uiso       1.00
       C91          C  0.7801000  0.2118000  0.7749000    0.00000       Uiso       1.00
       C92          C  0.7913000  0.2437000  0.6728000    0.00000       Uiso       1.00
       C93          C  0.8320000  0.2364000  0.5969000    0.00000       Uiso       1.00
       C94          C  0.7607000  0.2820000  0.6487000    0.00000       Uiso       1.00
       N95          N  0.8439999  0.2667000  0.4984000    0.00000       Uiso       1.00
       C96          C  0.8833000  0.2619000  0.4092000    0.00000       Uiso       1.00
       C97          C  0.8971000  0.3013000  0.3352000    0.00000       Uiso       1.00
       C98          C  0.9342000  0.2982000  0.2439000    0.00000       Uiso       1.00
       C99          C  0.9573000  0.2547000  0.2204000    0.00000       Uiso       1.00
      C100          C  0.9443000  0.2157000  0.2998000    0.00000       Uiso       1.00
      C101          C  0.9074000  0.2189000  0.3912000    0.00000       Uiso       1.00
      H102          H  0.8029000  0.1818000  0.7959000    0.00000       Uiso       1.00
      H103          H  0.8543000  0.2063000  0.6189000    0.00000       Uiso       1.00
      H104          H  0.7681000  0.3074000  0.5708000    0.00000       Uiso       1.00
      H105          H  0.8794000  0.3349000  0.3496000    0.00000       Uiso       1.00
      H106          H  0.9448000  0.3303000  0.1944000    0.00000       Uiso       1.00
      H107          H  0.9626000  0.1822000  0.2896000    0.00000       Uiso       1.00
      H108          H  0.8973000  0.1874000  0.4457000    0.00000       Uiso       1.00
      C109          C  0.2199000  0.2882000  0.7749000    0.00000       Uiso       1.00
      C110          C  0.2087000  0.2563000  0.6728000    0.00000       Uiso       1.00
      C111          C  0.1680000  0.2636000  0.5969000    0.00000       Uiso       1.00
      C112          C  0.2393000  0.2180000  0.6487000    0.00000       Uiso       1.00
      N113          N  0.1560000  0.2333000  0.4984000    0.00000       Uiso       1.00
      C114          C  0.1167000  0.2381000  0.4092000    0.00000       Uiso       1.00
      C115          C  0.1029000  0.1987000  0.3352000    0.00000       Uiso       1.00
      C116          C  0.0658000  0.2018000  0.2439000    0.00000       Uiso       1.00
      C117          C  0.0427000  0.2453000  0.2204000    0.00000       Uiso       1.00
      C118          C  0.0557000  0.2843000  0.2998000    0.00000       Uiso       1.00
      C119          C  0.0926000  0.2811000  0.3912000    0.00000       Uiso       1.00
      H120          H  0.1971000  0.3182000  0.7959000    0.00000       Uiso       1.00
      H121          H  0.1457000  0.2937000  0.6189000    0.00000       Uiso       1.00
      H122          H  0.2319000  0.1926000  0.5708000    0.00000       Uiso       1.00
      H123          H  0.1206000  0.1651000  0.3496000    0.00000       Uiso       1.00
      H124          H  0.0552000  0.1697000  0.1944000    0.00000       Uiso       1.00
      H125          H  0.0374000  0.3178000  0.2896000    0.00000       Uiso       1.00
      H126          H  0.1027000  0.3126000  0.4457000    0.00000       Uiso       1.00
      C127          C  0.7199000  0.7882000  0.2749000    0.00000       Uiso       1.00
      C128          C  0.7087000  0.7563000  0.1728000    0.00000       Uiso       1.00
      C129          C  0.6680000  0.7636000  0.0969000    0.00000       Uiso       1.00
      C130          C  0.7393000  0.7180000  0.1487000    0.00000       Uiso       1.00
      N131          N  0.6560000  0.7333000  0.9984000    0.00000       Uiso       1.00
      C132          C  0.6167000  0.7381001  0.9092000    0.00000       Uiso       1.00
      C133          C  0.6029000  0.6987000  0.8352000    0.00000       Uiso       1.00
      C134          C  0.5658000  0.7018000  0.7439000    0.00000       Uiso       1.00
      C135          C  0.5427000  0.7453000  0.7204000    0.00000       Uiso       1.00
      C136          C  0.5557000  0.7843000  0.7998000    0.00000       Uiso       1.00
      C137          C  0.5926000  0.7811000  0.8912000    0.00000       Uiso       1.00
      H138          H  0.6971000  0.8182000  0.2959000    0.00000       Uiso       1.00
      H139          H  0.6457000  0.7937000  0.1189000    0.00000       Uiso       1.00
      H140          H  0.7319000  0.6926000  0.0708000    0.00000       Uiso       1.00
      H141          H  0.6206000  0.6651000  0.8496000    0.00000       Uiso       1.00
      H142          H  0.5552000  0.6697000  0.6944000    0.00000       Uiso       1.00
      H143          H  0.5374000  0.8178000  0.7896000    0.00000       Uiso       1.00
      H144          H  0.6027000  0.8126000  0.9456999    0.00000       Uiso       1.00
      C145          C  0.5382000  0.5301000  0.9751000    0.00000       Uiso       1.00
      C146          C  0.5063000  0.5413000  0.0772000    0.00000       Uiso       1.00
      C147          C  0.5136000  0.5820000  0.1531000    0.00000       Uiso       1.00
      C148          C  0.4680000  0.5107000  0.1013000    0.00000       Uiso       1.00
      N149          N  0.4833000  0.5940000  0.2516000    0.00000       Uiso       1.00
      C150          C  0.4881000  0.6333000  0.3408000    0.00000       Uiso       1.00
      C151          C  0.4487000  0.6471000  0.4148000    0.00000       Uiso       1.00
      C152          C  0.4518000  0.6842000  0.5061000    0.00000       Uiso       1.00
      C153          C  0.4953000  0.7073000  0.5296000    0.00000       Uiso       1.00
      C154          C  0.5343000  0.6943000  0.4502000    0.00000       Uiso       1.00
      C155          C  0.5311000  0.6574000  0.3588000    0.00000       Uiso       1.00
      H156          H  0.5682000  0.5529000  0.9541000    0.00000       Uiso       1.00
      H157          H  0.5437000  0.6043000  0.1311000    0.00000       Uiso       1.00
      H158          H  0.4426000  0.5181000  0.1792000    0.00000       Uiso       1.00
      H159          H  0.4151000  0.6294000  0.4004000    0.00000       Uiso       1.00
      H160          H  0.4197000  0.6948000  0.5556000    0.00000       Uiso       1.00
      H161          H  0.5678000  0.7126000  0.4604000    0.00000       Uiso       1.00
      H162          H  0.5626000  0.6473000  0.3043000    0.00000       Uiso       1.00
      C163          C  0.0382000  0.0301000  0.4751000    0.00000       Uiso       1.00
      C164          C  0.0063000  0.0413000  0.5772000    0.00000       Uiso       1.00
      C165          C  0.0136000  0.0820000  0.6531000    0.00000       Uiso       1.00
      C166          C  0.9680000  0.0107000  0.6013000    0.00000       Uiso       1.00
      N167          N  0.9833000  0.0940000  0.7516000    0.00000       Uiso       1.00
      C168          C  0.9881000  0.1333000  0.8408000    0.00000       Uiso       1.00
      C169          C  0.9487000  0.1471000  0.9148000    0.00000       Uiso       1.00
      C170          C  0.9518000  0.1842000  0.0061000    0.00000       Uiso       1.00
      C171          C  0.9953000  0.2073000  0.0296000    0.00000       Uiso       1.00
      C172          C  0.0343000  0.1943000  0.9502000    0.00000       Uiso       1.00
      C173          C  0.0311000  0.1574000  0.8588000    0.00000       Uiso       1.00
      H174          H  0.0682000  0.0529000  0.4541000    0.00000       Uiso       1.00
      H175          H  0.0437000  0.1043000  0.6311000    0.00000       Uiso       1.00
      H176          H  0.9426001  0.0181000  0.6792000    0.00000       Uiso       1.00
      H177          H  0.9151000  0.1294000  0.9004000    0.00000       Uiso       1.00
      H178          H  0.9197000  0.1948000  0.0556000    0.00000       Uiso       1.00
      H179          H  0.0678000  0.2126000  0.9604000    0.00000       Uiso       1.00
      H180          H  0.0626000  0.1473000  0.8043000    0.00000       Uiso       1.00
      C181          C  0.9618000  0.4699000  0.4751000    0.00000       Uiso       1.00
      C182          C  0.9937001  0.4587000  0.5772000    0.00000       Uiso       1.00
      C183          C  0.9864000  0.4180000  0.6531000    0.00000       Uiso       1.00
      C184          C  0.0320000  0.4893000  0.6013000    0.00000       Uiso       1.00
      N185          N  0.0167000  0.4060000  0.7516000    0.00000       Uiso       1.00
      C186          C  0.0119000  0.3667000  0.8408000    0.00000       Uiso       1.00
      C187          C  0.0513000  0.3529000  0.9148000    0.00000       Uiso       1.00
      C188          C  0.0482000  0.3158000  0.0061000    0.00000       Uiso       1.00
      C189          C  0.0047000  0.2927000  0.0296000    0.00000       Uiso       1.00
      C190          C  0.9657000  0.3057000  0.9502000    0.00000       Uiso       1.00
      C191          C  0.9689000  0.3426000  0.8588000    0.00000       Uiso       1.00
      H192          H  0.9318000  0.4471000  0.4541000    0.00000       Uiso       1.00
      H193          H  0.9563000  0.3957000  0.6311000    0.00000       Uiso       1.00
      H194          H  0.0574000  0.4819000  0.6792000    0.00000       Uiso       1.00
      H195          H  0.0849000  0.3706000  0.9004000    0.00000       Uiso       1.00
      H196          H  0.0803000  0.3052000  0.0556000    0.00000       Uiso       1.00
      H197          H  0.9322000  0.2874000  0.9604000    0.00000       Uiso       1.00
      H198          H  0.9374000  0.3527000  0.8043000    0.00000       Uiso       1.00
      C199          C  0.4618000  0.9699000  0.9751000    0.00000       Uiso       1.00
      C200          C  0.4937000  0.9587000  0.0772000    0.00000       Uiso       1.00
      C201          C  0.4864000  0.9180000  0.1531000    0.00000       Uiso       1.00
      C202          C  0.5320000  0.9893000  0.1013000    0.00000       Uiso       1.00
      N203          N  0.5167000  0.9060000  0.2516000    0.00000       Uiso       1.00
      C204          C  0.5119000  0.8667000  0.3408000    0.00000       Uiso       1.00
      C205          C  0.5513000  0.8529000  0.4148000    0.00000       Uiso       1.00
      C206          C  0.5482000  0.8158000  0.5061000    0.00000       Uiso       1.00
      C207          C  0.5047000  0.7927001  0.5296000    0.00000       Uiso       1.00
      C208          C  0.4657000  0.8057000  0.4502000    0.00000       Uiso       1.00
      C209          C  0.4689000  0.8426000  0.3588000    0.00000       Uiso       1.00
      H210          H  0.4318000  0.9471000  0.9541000    0.00000       Uiso       1.00
      H211          H  0.4563000  0.8957000  0.1311000    0.00000       Uiso       1.00
      H212          H  0.5574000  0.9819000  0.1792000    0.00000       Uiso       1.00
      H213          H  0.5849000  0.8706000  0.4004000    0.00000       Uiso       1.00
      H214          H  0.5803000  0.8051999  0.5556000    0.00000       Uiso       1.00
      H215          H  0.4322000  0.7874001  0.4604000    0.00000       Uiso       1.00
      H216          H  0.4374000  0.8527001  0.3043000    0.00000       Uiso       1.00
      C217          C  0.7199000  0.2882000  0.7251000    0.00000       Uiso       1.00
      C218          C  0.7087000  0.2563000  0.8272000    0.00000       Uiso       1.00
      C219          C  0.6680000  0.2636000  0.9031000    0.00000       Uiso       1.00
      C220          C  0.7393000  0.2180000  0.8513000    0.00000       Uiso       1.00
      N221          N  0.6560000  0.2333000  0.0016000    0.00000       Uiso       1.00
      C222          C  0.6167000  0.2381000  0.0908000    0.00000       Uiso       1.00
      C223          C  0.6029000  0.1987000  0.1648000    0.00000       Uiso       1.00
      C224          C  0.5658000  0.2018000  0.2561000    0.00000       Uiso       1.00
      C225          C  0.5427000  0.2453000  0.2796000    0.00000       Uiso       1.00
      C226          C  0.5557000  0.2843000  0.2002000    0.00000       Uiso       1.00
      C227          C  0.5926000  0.2811000  0.1088000    0.00000       Uiso       1.00
      H228          H  0.6971000  0.3182000  0.7041000    0.00000       Uiso       1.00
      H229          H  0.6457000  0.2937000  0.8811000    0.00000       Uiso       1.00
      H230          H  0.7319000  0.1926000  0.9292000    0.00000       Uiso       1.00
      H231          H  0.6206000  0.1651000  0.1504000    0.00000       Uiso       1.00
      H232          H  0.5552000  0.1697000  0.3056000    0.00000       Uiso       1.00
      H233          H  0.5374000  0.3178000  0.2104000    0.00000       Uiso       1.00
      H234          H  0.6027000  0.3126000  0.0543000    0.00000       Uiso       1.00
      C235          C  0.2199000  0.7882000  0.2251000    0.00000       Uiso       1.00
      C236          C  0.2087000  0.7563000  0.3272000    0.00000       Uiso       1.00
      C237          C  0.1680000  0.7636000  0.4031000    0.00000       Uiso       1.00
      C238          C  0.2393000  0.7180000  0.3513000    0.00000       Uiso       1.00
      N239          N  0.1560000  0.7333000  0.5016000    0.00000       Uiso       1.00
      C240          C  0.1167000  0.7381001  0.5908000    0.00000       Uiso       1.00
      C241          C  0.1029000  0.6987000  0.6648000    0.00000       Uiso       1.00
      C242          C  0.0658000  0.7018000  0.7561000    0.00000       Uiso       1.00
      C243          C  0.0427000  0.7453000  0.7796000    0.00000       Uiso       1.00
      C244          C  0.0557000  0.7843000  0.7002000    0.00000       Uiso       1.00
      C245          C  0.0926000  0.7811000  0.6088000    0.00000       Uiso       1.00
      H246          H  0.1971000  0.8182000  0.2041000    0.00000       Uiso       1.00
      H247          H  0.1457000  0.7937000  0.3811000    0.00000       Uiso       1.00
      H248          H  0.2319000  0.6926000  0.4292000    0.00000       Uiso       1.00
      H249          H  0.1206000  0.6651000  0.6504000    0.00000       Uiso       1.00
      H250          H  0.0552000  0.6697000  0.8056000    0.00000       Uiso       1.00
      H251          H  0.0374000  0.8178000  0.7104000    0.00000       Uiso       1.00
      H252          H  0.1027000  0.8126000  0.5543000    0.00000       Uiso       1.00
      C253          C  0.7801000  0.7117999  0.2251000    0.00000       Uiso       1.00
      C254          C  0.7913000  0.7437000  0.3272000    0.00000       Uiso       1.00
      C255          C  0.8320000  0.7363999  0.4031000    0.00000       Uiso       1.00
      C256          C  0.7607000  0.7820000  0.3513000    0.00000       Uiso       1.00
      N257          N  0.8439999  0.7667000  0.5016000    0.00000       Uiso       1.00
      C258          C  0.8833000  0.7619000  0.5908000    0.00000       Uiso       1.00
      C259          C  0.8971000  0.8013000  0.6648000    0.00000       Uiso       1.00
      C260          C  0.9342000  0.7982000  0.7561000    0.00000       Uiso       1.00
      C261          C  0.9573000  0.7547000  0.7796000    0.00000       Uiso       1.00
      C262          C  0.9443000  0.7157000  0.7002000    0.00000       Uiso       1.00
      C263          C  0.9074000  0.7189000  0.6088000    0.00000       Uiso       1.00
      H264          H  0.8029000  0.6818000  0.2041000    0.00000       Uiso       1.00
      H265          H  0.8543000  0.7063000  0.3811000    0.00000       Uiso       1.00
      H266          H  0.7681000  0.8074000  0.4292000    0.00000       Uiso       1.00
      H267          H  0.8794000  0.8349000  0.6504000    0.00000       Uiso       1.00
      H268          H  0.9448000  0.8303000  0.8056000    0.00000       Uiso       1.00
      H269          H  0.9626000  0.6822000  0.7104000    0.00000       Uiso       1.00
      H270          H  0.8973000  0.6874000  0.5543000    0.00000       Uiso       1.00
      C271          C  0.2801000  0.2118000  0.7251000    0.00000       Uiso       1.00
      C272          C  0.2913000  0.2437000  0.8272000    0.00000       Uiso       1.00
      C273          C  0.3320000  0.2364000  0.9031000    0.00000       Uiso       1.00
      C274          C  0.2607000  0.2820000  0.8513000    0.00000       Uiso       1.00
      N275          N  0.3440000  0.2667000  0.0016000    0.00000       Uiso       1.00
      C276          C  0.3833000  0.2619000  0.0908000    0.00000       Uiso       1.00
      C277          C  0.3971000  0.3013000  0.1648000    0.00000       Uiso       1.00
      C278          C  0.4342000  0.2982000  0.2561000    0.00000       Uiso       1.00
      C279          C  0.4573000  0.2547000  0.2796000    0.00000       Uiso       1.00
      C280          C  0.4443000  0.2157000  0.2002000    0.00000       Uiso       1.00
      C281          C  0.4074000  0.2189000  0.1088000    0.00000       Uiso       1.00
      H282          H  0.3029000  0.1818000  0.7041000    0.00000       Uiso       1.00
      H283          H  0.3543000  0.2063000  0.8811000    0.00000       Uiso       1.00
      H284          H  0.2681000  0.3074000  0.9292000    0.00000       Uiso       1.00
      H285          H  0.3794000  0.3349000  0.1504000    0.00000       Uiso       1.00
      H286          H  0.4448000  0.3303000  0.3056000    0.00000       Uiso       1.00
      H287          H  0.4626000  0.1822000  0.2104000    0.00000       Uiso       1.00
      H288          H  0.3973000  0.1874000  0.0543000    0.00000       Uiso       1.00
      C289          C  0.0000000  0.2500000  0.1250000    0.00000       Uiso       1.00
      C290          C  0.5000000  0.7500000  0.6250000    0.00000       Uiso       1.00
      C291          C  0.5000000  0.2500000  0.3750000    0.00000       Uiso       1.00
      C292          C  0.0000000  0.7500000  0.8750000    0.00000       Uiso       1.00
