data_3D-OH-COF
_audit_creation_date              0000-00-00
_audit_creation_method            'LanYouShi'
_symmetry_space_group_name_H-M    'P1'
_cell_length_a                    30.5119991
_cell_length_b                    30.5119991
_cell_length_c                    7.3839998
_cell_angle_alpha                 90.0000000
_cell_angle_beta                  90.0000000
_cell_angle_gamma                 90.0000000
loop_
_atom_site_label
_atom_site_type_symbol
_atom_site_fract_x
_atom_site_fract_y
_atom_site_fract_z
_atom_site_U_iso_or_equiv
_atom_site_adp_type
_atom_site_occupancy
       xx1          C  0.9887000  0.0386000  0.1281000    0.00000       Uiso       1.00
       xx2          C  0.9506000  0.0351000  0.2340000    0.00000       Uiso       1.00
       xx3          C  0.9393000  0.0689000  0.3550000    0.00000       Uiso       1.00
       xx4          C  0.9662000  0.1062000  0.3700000    0.00000       Uiso       1.00
       xx5          C  0.0043000  0.1097000  0.2640000    0.00000       Uiso       1.00
       xx6          C  0.0156000  0.0759000  0.1430000    0.00000       Uiso       1.00
       xx7          C  0.9568000  0.1392000  0.5060000    0.00000       Uiso       1.00
       xx8          N  0.9316000  0.1350000  0.6480000    0.00000       Uiso       1.00
       xx9          C  0.9257000  0.1682000  0.7880000    0.00000       Uiso       1.00
      xx10          C  0.9490000  0.2078000  0.7740000    0.00000       Uiso       1.00
      xx11          C  0.9434000  0.2406000  0.9060001    0.00000       Uiso       1.00
      xx12          C  0.9145000  0.2337000  0.0526000    0.00000       Uiso       1.00
      xx13          C  0.8913000  0.1940000  0.0660000    0.00000       Uiso       1.00
      xx14          C  0.8969000  0.1613000  0.9340000    0.00000       Uiso       1.00
      xx15          O  0.8740700  0.1245100  0.9431200    0.00000       Uiso       1.00
      xx16          H  0.9286000  0.0045200  0.2217000    0.00000       Uiso       1.00
      xx17          H  0.9080000  0.0660600  0.4419300    0.00000       Uiso       1.00
      xx18          H  0.0263000  0.1402800  0.2762300    0.00000       Uiso       1.00
      xx19          H  0.0468900  0.0787300  0.0559900    0.00000       Uiso       1.00
      xx20          H  0.9723400  0.1735300  0.4946600    0.00000       Uiso       1.00
      xx21          H  0.9727000  0.2133700  0.6542600    0.00000       Uiso       1.00
      xx22          H  0.9624400  0.2731200  0.8943300    0.00000       Uiso       1.00
      xx23          H  0.8676100  0.1882600  0.1856400    0.00000       Uiso       1.00
      xx24          H  0.8422500  0.1308500  0.0150600    0.00000       Uiso       1.00
      xx25          C  0.4887000  0.5386000  0.6281000    0.00000       Uiso       1.00
      xx26          C  0.4506000  0.5351000  0.7340000    0.00000       Uiso       1.00
      xx27          C  0.4393000  0.5689000  0.8550000    0.00000       Uiso       1.00
      xx28          C  0.4662000  0.6062000  0.8700000    0.00000       Uiso       1.00
      xx29          C  0.5043000  0.6097000  0.7640000    0.00000       Uiso       1.00
      xx30          C  0.5156000  0.5759000  0.6430000    0.00000       Uiso       1.00
      xx31          C  0.4568000  0.6392000  0.0060000    0.00000       Uiso       1.00
      xx32          N  0.4316000  0.6350000  0.1480000    0.00000       Uiso       1.00
      xx33          C  0.4257000  0.6682000  0.2880000    0.00000       Uiso       1.00
      xx34          C  0.4490000  0.7078000  0.2740000    0.00000       Uiso       1.00
      xx35          C  0.4434000  0.7406000  0.4060000    0.00000       Uiso       1.00
      xx36          C  0.4145000  0.7337000  0.5526000    0.00000       Uiso       1.00
      xx37          C  0.3913000  0.6940000  0.5660000    0.00000       Uiso       1.00
      xx38          C  0.3969000  0.6613000  0.4340000    0.00000       Uiso       1.00
      xx39          O  0.3740700  0.6245100  0.4431200    0.00000       Uiso       1.00
      xx40          H  0.4286000  0.5045200  0.7217000    0.00000       Uiso       1.00
      xx41          H  0.4080000  0.5660600  0.9419301    0.00000       Uiso       1.00
      xx42          H  0.5263000  0.6402800  0.7762300    0.00000       Uiso       1.00
      xx43          H  0.5468900  0.5787300  0.5559900    0.00000       Uiso       1.00
      xx44          H  0.4723400  0.6735300  0.9946600    0.00000       Uiso       1.00
      xx45          H  0.4727000  0.7133700  0.1542600    0.00000       Uiso       1.00
      xx46          H  0.4624400  0.7731200  0.3943300    0.00000       Uiso       1.00
      xx47          H  0.3676100  0.6882600  0.6856400    0.00000       Uiso       1.00
      xx48          H  0.3422500  0.6308500  0.5150600    0.00000       Uiso       1.00
      xx49          C  0.0113000  0.9614000  0.1281000    0.00000       Uiso       1.00
      xx50          C  0.0494000  0.9649000  0.2340000    0.00000       Uiso       1.00
      xx51          C  0.0607000  0.9311000  0.3550000    0.00000       Uiso       1.00
      xx52          C  0.0338000  0.8938000  0.3700000    0.00000       Uiso       1.00
      xx53          C  0.9957000  0.8902999  0.2640000    0.00000       Uiso       1.00
      xx54          C  0.9844000  0.9241000  0.1430000    0.00000       Uiso       1.00
      xx55          C  0.0432000  0.8608000  0.5060000    0.00000       Uiso       1.00
      xx56          N  0.0684000  0.8650000  0.6480000    0.00000       Uiso       1.00
      xx57          C  0.0743000  0.8318000  0.7880000    0.00000       Uiso       1.00
      xx58          C  0.0510000  0.7922000  0.7740000    0.00000       Uiso       1.00
      xx59          C  0.0566000  0.7594000  0.9060001    0.00000       Uiso       1.00
      xx60          C  0.0855000  0.7663000  0.0526000    0.00000       Uiso       1.00
      xx61          C  0.1087000  0.8060000  0.0660000    0.00000       Uiso       1.00
      xx62          C  0.1031000  0.8387000  0.9340000    0.00000       Uiso       1.00
      xx63          O  0.1259300  0.8754900  0.9431200    0.00000       Uiso       1.00
      xx64          H  0.0714000  0.9954800  0.2217000    0.00000       Uiso       1.00
      xx65          H  0.0920000  0.9339400  0.4419300    0.00000       Uiso       1.00
      xx66          H  0.9737000  0.8597200  0.2762300    0.00000       Uiso       1.00
      xx67          H  0.9531100  0.9212700  0.0559900    0.00000       Uiso       1.00
      xx68          H  0.0276600  0.8264700  0.4946600    0.00000       Uiso       1.00
      xx69          H  0.0273000  0.7866300  0.6542600    0.00000       Uiso       1.00
      xx70          H  0.0375600  0.7268800  0.8943300    0.00000       Uiso       1.00
      xx71          H  0.1323900  0.8117400  0.1856400    0.00000       Uiso       1.00
      xx72          H  0.1577500  0.8691500  0.0150600    0.00000       Uiso       1.00
      xx73          C  0.5113000  0.4614000  0.6281000    0.00000       Uiso       1.00
      xx74          C  0.5494000  0.4649000  0.7340000    0.00000       Uiso       1.00
      xx75          C  0.5607000  0.4311000  0.8550000    0.00000       Uiso       1.00
      xx76          C  0.5338000  0.3938000  0.8700000    0.00000       Uiso       1.00
      xx77          C  0.4957000  0.3903000  0.7640000    0.00000       Uiso       1.00
      xx78          C  0.4844000  0.4241000  0.6430000    0.00000       Uiso       1.00
      xx79          C  0.5432000  0.3608000  0.0060000    0.00000       Uiso       1.00
      xx80          N  0.5684000  0.3650000  0.1480000    0.00000       Uiso       1.00
      xx81          C  0.5743000  0.3318000  0.2880000    0.00000       Uiso       1.00
      xx82          C  0.5510000  0.2922000  0.2740000    0.00000       Uiso       1.00
      xx83          C  0.5566000  0.2594000  0.4060000    0.00000       Uiso       1.00
      xx84          C  0.5855000  0.2663000  0.5526000    0.00000       Uiso       1.00
      xx85          C  0.6087000  0.3060000  0.5660000    0.00000       Uiso       1.00
      xx86          C  0.6031000  0.3387000  0.4340000    0.00000       Uiso       1.00
      xx87          O  0.6259300  0.3754900  0.4431200    0.00000       Uiso       1.00
      xx88          H  0.5714000  0.4954800  0.7217000    0.00000       Uiso       1.00
      xx89          H  0.5920001  0.4339400  0.9419301    0.00000       Uiso       1.00
      xx90          H  0.4737000  0.3597200  0.7762300    0.00000       Uiso       1.00
      xx91          H  0.4531100  0.4212700  0.5559900    0.00000       Uiso       1.00
      xx92          H  0.5276600  0.3264700  0.9946600    0.00000       Uiso       1.00
      xx93          H  0.5273000  0.2866300  0.1542600    0.00000       Uiso       1.00
      xx94          H  0.5375600  0.2268800  0.3943300    0.00000       Uiso       1.00
      xx95          H  0.6323900  0.3117400  0.6856400    0.00000       Uiso       1.00
      xx96          H  0.6577500  0.3691500  0.5150600    0.00000       Uiso       1.00
      xx97          C  0.0386000  0.0113000  0.8719000    0.00000       Uiso       1.00
      xx98          C  0.0351000  0.0494000  0.7660000    0.00000       Uiso       1.00
      xx99          C  0.0689000  0.0607000  0.6450000    0.00000       Uiso       1.00
     xx100          C  0.1062000  0.0338000  0.6300000    0.00000       Uiso       1.00
     xx101          C  0.1097000  0.9957000  0.7360000    0.00000       Uiso       1.00
     xx102          C  0.0759000  0.9844000  0.8570000    0.00000       Uiso       1.00
     xx103          C  0.1392000  0.0432000  0.4940000    0.00000       Uiso       1.00
     xx104          N  0.1350000  0.0684000  0.3520000    0.00000       Uiso       1.00
     xx105          C  0.1682000  0.0743000  0.2120000    0.00000       Uiso       1.00
     xx106          C  0.2078000  0.0510000  0.2260000    0.00000       Uiso       1.00
     xx107          C  0.2406000  0.0566000  0.0940000    0.00000       Uiso       1.00
     xx108          C  0.2337000  0.0855000  0.9474000    0.00000       Uiso       1.00
     xx109          C  0.1940000  0.1087000  0.9340000    0.00000       Uiso       1.00
     xx110          C  0.1613000  0.1031000  0.0660000    0.00000       Uiso       1.00
     xx111          O  0.1245100  0.1259300  0.0568800    0.00000       Uiso       1.00
     xx112          H  0.0045200  0.0714000  0.7783000    0.00000       Uiso       1.00
     xx113          H  0.0660600  0.0920000  0.5580699    0.00000       Uiso       1.00
     xx114          H  0.1402800  0.9737000  0.7237700    0.00000       Uiso       1.00
     xx115          H  0.0787300  0.9531100  0.9440100    0.00000       Uiso       1.00
     xx116          H  0.1735300  0.0276600  0.5053400    0.00000       Uiso       1.00
     xx117          H  0.2133700  0.0273000  0.3457400    0.00000       Uiso       1.00
     xx118          H  0.2731200  0.0375600  0.1056700    0.00000       Uiso       1.00
     xx119          H  0.1882600  0.1323900  0.8143600    0.00000       Uiso       1.00
     xx120          H  0.1308500  0.1577500  0.9849400    0.00000       Uiso       1.00
     xx121          C  0.5386000  0.5113000  0.3719000    0.00000       Uiso       1.00
     xx122          C  0.5351000  0.5494000  0.2660000    0.00000       Uiso       1.00
     xx123          C  0.5689000  0.5607000  0.1450000    0.00000       Uiso       1.00
     xx124          C  0.6062000  0.5338000  0.1300000    0.00000       Uiso       1.00
     xx125          C  0.6097000  0.4957000  0.2360000    0.00000       Uiso       1.00
     xx126          C  0.5759000  0.4844000  0.3570000    0.00000       Uiso       1.00
     xx127          C  0.6392000  0.5432000  0.9940000    0.00000       Uiso       1.00
     xx128          N  0.6350000  0.5684000  0.8520000    0.00000       Uiso       1.00
     xx129          C  0.6682000  0.5743000  0.7120000    0.00000       Uiso       1.00
     xx130          C  0.7078000  0.5510000  0.7260000    0.00000       Uiso       1.00
     xx131          C  0.7406000  0.5566000  0.5939999    0.00000       Uiso       1.00
     xx132          C  0.7337000  0.5855000  0.4474000    0.00000       Uiso       1.00
     xx133          C  0.6940000  0.6087000  0.4340000    0.00000       Uiso       1.00
     xx134          C  0.6613000  0.6031000  0.5660000    0.00000       Uiso       1.00
     xx135          O  0.6245100  0.6259300  0.5568800    0.00000       Uiso       1.00
     xx136          H  0.5045200  0.5714000  0.2783000    0.00000       Uiso       1.00
     xx137          H  0.5660600  0.5920001  0.0580700    0.00000       Uiso       1.00
     xx138          H  0.6402800  0.4737000  0.2237700    0.00000       Uiso       1.00
     xx139          H  0.5787300  0.4531100  0.4440100    0.00000       Uiso       1.00
     xx140          H  0.6735300  0.5276600  0.0053400    0.00000       Uiso       1.00
     xx141          H  0.7133700  0.5273000  0.8457400    0.00000       Uiso       1.00
     xx142          H  0.7731200  0.5375600  0.6056700    0.00000       Uiso       1.00
     xx143          H  0.6882600  0.6323900  0.3143600    0.00000       Uiso       1.00
     xx144          H  0.6308500  0.6577500  0.4849400    0.00000       Uiso       1.00
     xx145          C  0.9614000  0.9887000  0.8719000    0.00000       Uiso       1.00
     xx146          C  0.9649000  0.9506000  0.7660000    0.00000       Uiso       1.00
     xx147          C  0.9311000  0.9393000  0.6450000    0.00000       Uiso       1.00
     xx148          C  0.8938000  0.9662000  0.6300000    0.00000       Uiso       1.00
     xx149          C  0.8902999  0.0043000  0.7360000    0.00000       Uiso       1.00
     xx150          C  0.9241000  0.0156000  0.8570000    0.00000       Uiso       1.00
     xx151          C  0.8608000  0.9568000  0.4940000    0.00000       Uiso       1.00
     xx152          N  0.8650000  0.9316000  0.3520000    0.00000       Uiso       1.00
     xx153          C  0.8318000  0.9257000  0.2120000    0.00000       Uiso       1.00
     xx154          C  0.7922000  0.9490000  0.2260000    0.00000       Uiso       1.00
     xx155          C  0.7594000  0.9434000  0.0940000    0.00000       Uiso       1.00
     xx156          C  0.7663000  0.9145000  0.9474000    0.00000       Uiso       1.00
     xx157          C  0.8060000  0.8913000  0.9340000    0.00000       Uiso       1.00
     xx158          C  0.8387000  0.8969000  0.0660000    0.00000       Uiso       1.00
     xx159          O  0.8754900  0.8740700  0.0568800    0.00000       Uiso       1.00
     xx160          H  0.9954800  0.9286000  0.7783000    0.00000       Uiso       1.00
     xx161          H  0.9339400  0.9080000  0.5580699    0.00000       Uiso       1.00
     xx162          H  0.8597200  0.0263000  0.7237700    0.00000       Uiso       1.00
     xx163          H  0.9212700  0.0468900  0.9440100    0.00000       Uiso       1.00
     xx164          H  0.8264700  0.9723400  0.5053400    0.00000       Uiso       1.00
     xx165          H  0.7866300  0.9727000  0.3457400    0.00000       Uiso       1.00
     xx166          H  0.7268800  0.9624400  0.1056700    0.00000       Uiso       1.00
     xx167          H  0.8117400  0.8676100  0.8143600    0.00000       Uiso       1.00
     xx168          H  0.8691500  0.8422500  0.9849400    0.00000       Uiso       1.00
     xx169          C  0.4614000  0.4887000  0.3719000    0.00000       Uiso       1.00
     xx170          C  0.4649000  0.4506000  0.2660000    0.00000       Uiso       1.00
     xx171          C  0.4311000  0.4393000  0.1450000    0.00000       Uiso       1.00
     xx172          C  0.3938000  0.4662000  0.1300000    0.00000       Uiso       1.00
     xx173          C  0.3903000  0.5043000  0.2360000    0.00000       Uiso       1.00
     xx174          C  0.4241000  0.5156000  0.3570000    0.00000       Uiso       1.00
     xx175          C  0.3608000  0.4568000  0.9940000    0.00000       Uiso       1.00
     xx176          N  0.3650000  0.4316000  0.8520000    0.00000       Uiso       1.00
     xx177          C  0.3318000  0.4257000  0.7120000    0.00000       Uiso       1.00
     xx178          C  0.2922000  0.4490000  0.7260000    0.00000       Uiso       1.00
     xx179          C  0.2594000  0.4434000  0.5939999    0.00000       Uiso       1.00
     xx180          C  0.2663000  0.4145000  0.4474000    0.00000       Uiso       1.00
     xx181          C  0.3060000  0.3913000  0.4340000    0.00000       Uiso       1.00
     xx182          C  0.3387000  0.3969000  0.5660000    0.00000       Uiso       1.00
     xx183          O  0.3754900  0.3740700  0.5568800    0.00000       Uiso       1.00
     xx184          H  0.4954800  0.4286000  0.2783000    0.00000       Uiso       1.00
     xx185          H  0.4339400  0.4080000  0.0580700    0.00000       Uiso       1.00
     xx186          H  0.3597200  0.5263000  0.2237700    0.00000       Uiso       1.00
     xx187          H  0.4212700  0.5468900  0.4440100    0.00000       Uiso       1.00
     xx188          H  0.3264700  0.4723400  0.0053400    0.00000       Uiso       1.00
     xx189          H  0.2866300  0.4727000  0.8457400    0.00000       Uiso       1.00
     xx190          H  0.2268800  0.4624400  0.6056700    0.00000       Uiso       1.00
     xx191          H  0.3117400  0.3676100  0.3143600    0.00000       Uiso       1.00
     xx192          H  0.3691500  0.3422500  0.4849400    0.00000       Uiso       1.00
     xx193          C  0.5113000  0.0386000  0.6219000    0.00000       Uiso       1.00
     xx194          C  0.5494000  0.0351000  0.5160000    0.00000       Uiso       1.00
     xx195          C  0.5607000  0.0689000  0.3950000    0.00000       Uiso       1.00
     xx196          C  0.5338000  0.1062000  0.3800000    0.00000       Uiso       1.00
     xx197          C  0.4957000  0.1097000  0.4860000    0.00000       Uiso       1.00
     xx198          C  0.4844000  0.0759000  0.6069999    0.00000       Uiso       1.00
     xx199          C  0.5432000  0.1392000  0.2440000    0.00000       Uiso       1.00
     xx200          N  0.5684000  0.1350000  0.1020000    0.00000       Uiso       1.00
     xx201          C  0.5743000  0.1682000  0.9620000    0.00000       Uiso       1.00
     xx202          C  0.5510000  0.2078000  0.9760000    0.00000       Uiso       1.00
     xx203          C  0.5566000  0.2406000  0.8440000    0.00000       Uiso       1.00
     xx204          C  0.5855000  0.2337000  0.6974000    0.00000       Uiso       1.00
     xx205          C  0.6087000  0.1940000  0.6840000    0.00000       Uiso       1.00
     xx206          C  0.6031000  0.1613000  0.8160000    0.00000       Uiso       1.00
     xx207          O  0.6259300  0.1245100  0.8068800    0.00000       Uiso       1.00
     xx208          H  0.5714000  0.0045200  0.5283000    0.00000       Uiso       1.00
     xx209          H  0.5920001  0.0660600  0.3080700    0.00000       Uiso       1.00
     xx210          H  0.4737000  0.1402800  0.4737700    0.00000       Uiso       1.00
     xx211          H  0.4531100  0.0787300  0.6940100    0.00000       Uiso       1.00
     xx212          H  0.5276600  0.1735300  0.2553400    0.00000       Uiso       1.00
     xx213          H  0.5273000  0.2133700  0.0957400    0.00000       Uiso       1.00
     xx214          H  0.5375600  0.2731200  0.8556700    0.00000       Uiso       1.00
     xx215          H  0.6323900  0.1882600  0.5643600    0.00000       Uiso       1.00
     xx216          H  0.6577500  0.1308500  0.7349400    0.00000       Uiso       1.00
     xx217          C  0.0113000  0.5386000  0.1219000    0.00000       Uiso       1.00
     xx218          C  0.0494000  0.5351000  0.0160000    0.00000       Uiso       1.00
     xx219          C  0.0607000  0.5689000  0.8950000    0.00000       Uiso       1.00
     xx220          C  0.0338000  0.6062000  0.8800001    0.00000       Uiso       1.00
     xx221          C  0.9957000  0.6097000  0.9860000    0.00000       Uiso       1.00
     xx222          C  0.9844000  0.5759000  0.1070000    0.00000       Uiso       1.00
     xx223          C  0.0432000  0.6392000  0.7440000    0.00000       Uiso       1.00
     xx224          N  0.0684000  0.6350000  0.6020000    0.00000       Uiso       1.00
     xx225          C  0.0743000  0.6682000  0.4620000    0.00000       Uiso       1.00
     xx226          C  0.0510000  0.7078000  0.4760000    0.00000       Uiso       1.00
     xx227          C  0.0566000  0.7406000  0.3440000    0.00000       Uiso       1.00
     xx228          C  0.0855000  0.7337000  0.1974000    0.00000       Uiso       1.00
     xx229          C  0.1087000  0.6940000  0.1840000    0.00000       Uiso       1.00
     xx230          C  0.1031000  0.6613000  0.3160000    0.00000       Uiso       1.00
     xx231          O  0.1259300  0.6245100  0.3068800    0.00000       Uiso       1.00
     xx232          H  0.0714000  0.5045200  0.0283000    0.00000       Uiso       1.00
     xx233          H  0.0920000  0.5660600  0.8080700    0.00000       Uiso       1.00
     xx234          H  0.9737000  0.6402800  0.9737700    0.00000       Uiso       1.00
     xx235          H  0.9531100  0.5787300  0.1940100    0.00000       Uiso       1.00
     xx236          H  0.0276600  0.6735300  0.7553400    0.00000       Uiso       1.00
     xx237          H  0.0273000  0.7133700  0.5957400    0.00000       Uiso       1.00
     xx238          H  0.0375600  0.7731200  0.3556700    0.00000       Uiso       1.00
     xx239          H  0.1323900  0.6882600  0.0643600    0.00000       Uiso       1.00
     xx240          H  0.1577500  0.6308500  0.2349400    0.00000       Uiso       1.00
     xx241          C  0.4887000  0.9614000  0.6219000    0.00000       Uiso       1.00
     xx242          C  0.4506000  0.9649000  0.5160000    0.00000       Uiso       1.00
     xx243          C  0.4393000  0.9311000  0.3950000    0.00000       Uiso       1.00
     xx244          C  0.4662000  0.8938000  0.3800000    0.00000       Uiso       1.00
     xx245          C  0.5043000  0.8902999  0.4860000    0.00000       Uiso       1.00
     xx246          C  0.5156000  0.9241000  0.6069999    0.00000       Uiso       1.00
     xx247          C  0.4568000  0.8608000  0.2440000    0.00000       Uiso       1.00
     xx248          N  0.4316000  0.8650000  0.1020000    0.00000       Uiso       1.00
     xx249          C  0.4257000  0.8318000  0.9620000    0.00000       Uiso       1.00
     xx250          C  0.4490000  0.7922000  0.9760000    0.00000       Uiso       1.00
     xx251          C  0.4434000  0.7594000  0.8440000    0.00000       Uiso       1.00
     xx252          C  0.4145000  0.7663000  0.6974000    0.00000       Uiso       1.00
     xx253          C  0.3913000  0.8060000  0.6840000    0.00000       Uiso       1.00
     xx254          C  0.3969000  0.8387000  0.8160000    0.00000       Uiso       1.00
     xx255          O  0.3740700  0.8754900  0.8068800    0.00000       Uiso       1.00
     xx256          H  0.4286000  0.9954800  0.5283000    0.00000       Uiso       1.00
     xx257          H  0.4080000  0.9339400  0.3080700    0.00000       Uiso       1.00
     xx258          H  0.5263000  0.8597200  0.4737700    0.00000       Uiso       1.00
     xx259          H  0.5468900  0.9212700  0.6940100    0.00000       Uiso       1.00
     xx260          H  0.4723400  0.8264700  0.2553400    0.00000       Uiso       1.00
     xx261          H  0.4727000  0.7866300  0.0957400    0.00000       Uiso       1.00
     xx262          H  0.4624400  0.7268800  0.8556700    0.00000       Uiso       1.00
     xx263          H  0.3676100  0.8117400  0.5643600    0.00000       Uiso       1.00
     xx264          H  0.3422500  0.8691500  0.7349400    0.00000       Uiso       1.00
     xx265          C  0.9887000  0.4614000  0.1219000    0.00000       Uiso       1.00
     xx266          C  0.9506000  0.4649000  0.0160000    0.00000       Uiso       1.00
     xx267          C  0.9393000  0.4311000  0.8950000    0.00000       Uiso       1.00
     xx268          C  0.9662000  0.3938000  0.8800001    0.00000       Uiso       1.00
     xx269          C  0.0043000  0.3903000  0.9860000    0.00000       Uiso       1.00
     xx270          C  0.0156000  0.4241000  0.1070000    0.00000       Uiso       1.00
     xx271          C  0.9568000  0.3608000  0.7440000    0.00000       Uiso       1.00
     xx272          N  0.9316000  0.3650000  0.6020000    0.00000       Uiso       1.00
     xx273          C  0.9257000  0.3318000  0.4620000    0.00000       Uiso       1.00
     xx274          C  0.9490000  0.2922000  0.4760000    0.00000       Uiso       1.00
     xx275          C  0.9434000  0.2594000  0.3440000    0.00000       Uiso       1.00
     xx276          C  0.9145000  0.2663000  0.1974000    0.00000       Uiso       1.00
     xx277          C  0.8913000  0.3060000  0.1840000    0.00000       Uiso       1.00
     xx278          C  0.8969000  0.3387000  0.3160000    0.00000       Uiso       1.00
     xx279          O  0.8740700  0.3754900  0.3068800    0.00000       Uiso       1.00
     xx280          H  0.9286000  0.4954800  0.0283000    0.00000       Uiso       1.00
     xx281          H  0.9080000  0.4339400  0.8080700    0.00000       Uiso       1.00
     xx282          H  0.0263000  0.3597200  0.9737700    0.00000       Uiso       1.00
     xx283          H  0.0468900  0.4212700  0.1940100    0.00000       Uiso       1.00
     xx284          H  0.9723400  0.3264700  0.7553400    0.00000       Uiso       1.00
     xx285          H  0.9727000  0.2866300  0.5957400    0.00000       Uiso       1.00
     xx286          H  0.9624400  0.2268800  0.3556700    0.00000       Uiso       1.00
     xx287          H  0.8676100  0.3117400  0.0643600    0.00000       Uiso       1.00
     xx288          H  0.8422500  0.3691500  0.2349400    0.00000       Uiso       1.00
     xx289          C  0.4614000  0.0113000  0.8781000    0.00000       Uiso       1.00
     xx290          C  0.4649000  0.0494000  0.9840001    0.00000       Uiso       1.00
     xx291          C  0.4311000  0.0607000  0.1050000    0.00000       Uiso       1.00
     xx292          C  0.3938000  0.0338000  0.1200000    0.00000       Uiso       1.00
     xx293          C  0.3903000  0.9957000  0.0140000    0.00000       Uiso       1.00
     xx294          C  0.4241000  0.9844000  0.8930001    0.00000       Uiso       1.00
     xx295          C  0.3608000  0.0432000  0.2560000    0.00000       Uiso       1.00
     xx296          N  0.3650000  0.0684000  0.3980000    0.00000       Uiso       1.00
     xx297          C  0.3318000  0.0743000  0.5380000    0.00000       Uiso       1.00
     xx298          C  0.2922000  0.0510000  0.5240000    0.00000       Uiso       1.00
     xx299          C  0.2594000  0.0566000  0.6560000    0.00000       Uiso       1.00
     xx300          C  0.2663000  0.0855000  0.8026000    0.00000       Uiso       1.00
     xx301          C  0.3060000  0.1087000  0.8160000    0.00000       Uiso       1.00
     xx302          C  0.3387000  0.1031000  0.6840000    0.00000       Uiso       1.00
     xx303          O  0.3754900  0.1259300  0.6931200    0.00000       Uiso       1.00
     xx304          H  0.4954800  0.0714000  0.9717000    0.00000       Uiso       1.00
     xx305          H  0.4339400  0.0920000  0.1919300    0.00000       Uiso       1.00
     xx306          H  0.3597200  0.9737000  0.0262300    0.00000       Uiso       1.00
     xx307          H  0.4212700  0.9531100  0.8059900    0.00000       Uiso       1.00
     xx308          H  0.3264700  0.0276600  0.2446600    0.00000       Uiso       1.00
     xx309          H  0.2866300  0.0273000  0.4042600    0.00000       Uiso       1.00
     xx310          H  0.2268800  0.0375600  0.6443300    0.00000       Uiso       1.00
     xx311          H  0.3117400  0.1323900  0.9356400    0.00000       Uiso       1.00
     xx312          H  0.3691500  0.1577500  0.7650600    0.00000       Uiso       1.00
     xx313          C  0.9614000  0.5113000  0.3781000    0.00000       Uiso       1.00
     xx314          C  0.9649000  0.5494000  0.4840000    0.00000       Uiso       1.00
     xx315          C  0.9311000  0.5607000  0.6050000    0.00000       Uiso       1.00
     xx316          C  0.8938000  0.5338000  0.6199999    0.00000       Uiso       1.00
     xx317          C  0.8902999  0.4957000  0.5140000    0.00000       Uiso       1.00
     xx318          C  0.9241000  0.4844000  0.3930000    0.00000       Uiso       1.00
     xx319          C  0.8608000  0.5432000  0.7560000    0.00000       Uiso       1.00
     xx320          N  0.8650000  0.5684000  0.8980000    0.00000       Uiso       1.00
     xx321          C  0.8318000  0.5743000  0.0380000    0.00000       Uiso       1.00
     xx322          C  0.7922000  0.5510000  0.0240000    0.00000       Uiso       1.00
     xx323          C  0.7594000  0.5566000  0.1560000    0.00000       Uiso       1.00
     xx324          C  0.7663000  0.5855000  0.3026000    0.00000       Uiso       1.00
     xx325          C  0.8060000  0.6087000  0.3160000    0.00000       Uiso       1.00
     xx326          C  0.8387000  0.6031000  0.1840000    0.00000       Uiso       1.00
     xx327          O  0.8754900  0.6259300  0.1931200    0.00000       Uiso       1.00
     xx328          H  0.9954800  0.5714000  0.4717000    0.00000       Uiso       1.00
     xx329          H  0.9339400  0.5920001  0.6919300    0.00000       Uiso       1.00
     xx330          H  0.8597200  0.4737000  0.5262300    0.00000       Uiso       1.00
     xx331          H  0.9212700  0.4531100  0.3059900    0.00000       Uiso       1.00
     xx332          H  0.8264700  0.5276600  0.7446600    0.00000       Uiso       1.00
     xx333          H  0.7866300  0.5273000  0.9042600    0.00000       Uiso       1.00
     xx334          H  0.7268800  0.5375600  0.1443300    0.00000       Uiso       1.00
     xx335          H  0.8117400  0.6323900  0.4356400    0.00000       Uiso       1.00
     xx336          H  0.8691500  0.6577500  0.2650600    0.00000       Uiso       1.00
     xx337          C  0.5386000  0.9887000  0.8781000    0.00000       Uiso       1.00
     xx338          C  0.5351000  0.9506000  0.9840001    0.00000       Uiso       1.00
     xx339          C  0.5689000  0.9393000  0.1050000    0.00000       Uiso       1.00
     xx340          C  0.6062000  0.9662000  0.1200000    0.00000       Uiso       1.00
     xx341          C  0.6097000  0.0043000  0.0140000    0.00000       Uiso       1.00
     xx342          C  0.5759000  0.0156000  0.8930001    0.00000       Uiso       1.00
     xx343          C  0.6392000  0.9568000  0.2560000    0.00000       Uiso       1.00
     xx344          N  0.6350000  0.9316000  0.3980000    0.00000       Uiso       1.00
     xx345          C  0.6682000  0.9257000  0.5380000    0.00000       Uiso       1.00
     xx346          C  0.7078000  0.9490000  0.5240000    0.00000       Uiso       1.00
     xx347          C  0.7406000  0.9434000  0.6560000    0.00000       Uiso       1.00
     xx348          C  0.7337000  0.9145000  0.8026000    0.00000       Uiso       1.00
     xx349          C  0.6940000  0.8913000  0.8160000    0.00000       Uiso       1.00
     xx350          C  0.6613000  0.8969000  0.6840000    0.00000       Uiso       1.00
     xx351          O  0.6245100  0.8740700  0.6931200    0.00000       Uiso       1.00
     xx352          H  0.5045200  0.9286000  0.9717000    0.00000       Uiso       1.00
     xx353          H  0.5660600  0.9080000  0.1919300    0.00000       Uiso       1.00
     xx354          H  0.6402800  0.0263000  0.0262300    0.00000       Uiso       1.00
     xx355          H  0.5787300  0.0468900  0.8059900    0.00000       Uiso       1.00
     xx356          H  0.6735300  0.9723400  0.2446600    0.00000       Uiso       1.00
     xx357          H  0.7133700  0.9727000  0.4042600    0.00000       Uiso       1.00
     xx358          H  0.7731200  0.9624400  0.6443300    0.00000       Uiso       1.00
     xx359          H  0.6882600  0.8676100  0.9356400    0.00000       Uiso       1.00
     xx360          H  0.6308500  0.8422500  0.7650600    0.00000       Uiso       1.00
     xx361          C  0.0386000  0.4887000  0.3781000    0.00000       Uiso       1.00
     xx362          C  0.0351000  0.4506000  0.4840000    0.00000       Uiso       1.00
     xx363          C  0.0689000  0.4393000  0.6050000    0.00000       Uiso       1.00
     xx364          C  0.1062000  0.4662000  0.6199999    0.00000       Uiso       1.00
     xx365          C  0.1097000  0.5043000  0.5140000    0.00000       Uiso       1.00
     xx366          C  0.0759000  0.5156000  0.3930000    0.00000       Uiso       1.00
     xx367          C  0.1392000  0.4568000  0.7560000    0.00000       Uiso       1.00
     xx368          N  0.1350000  0.4316000  0.8980000    0.00000       Uiso       1.00
     xx369          C  0.1682000  0.4257000  0.0380000    0.00000       Uiso       1.00
     xx370          C  0.2078000  0.4490000  0.0240000    0.00000       Uiso       1.00
     xx371          C  0.2406000  0.4434000  0.1560000    0.00000       Uiso       1.00
     xx372          C  0.2337000  0.4145000  0.3026000    0.00000       Uiso       1.00
     xx373          C  0.1940000  0.3913000  0.3160000    0.00000       Uiso       1.00
     xx374          C  0.1613000  0.3969000  0.1840000    0.00000       Uiso       1.00
     xx375          O  0.1245100  0.3740700  0.1931200    0.00000       Uiso       1.00
     xx376          H  0.0045200  0.4286000  0.4717000    0.00000       Uiso       1.00
     xx377          H  0.0660600  0.4080000  0.6919300    0.00000       Uiso       1.00
     xx378          H  0.1402800  0.5263000  0.5262300    0.00000       Uiso       1.00
     xx379          H  0.0787300  0.5468900  0.3059900    0.00000       Uiso       1.00
     xx380          H  0.1735300  0.4723400  0.7446600    0.00000       Uiso       1.00
     xx381          H  0.2133700  0.4727000  0.9042600    0.00000       Uiso       1.00
     xx382          H  0.2731200  0.4624400  0.1443300    0.00000       Uiso       1.00
     xx383          H  0.1882600  0.3676100  0.4356400    0.00000       Uiso       1.00
     xx384          H  0.1308500  0.3422500  0.2650600    0.00000       Uiso       1.00
     xx385          C  0.0000000  0.0000000  0.0000000    0.00000       Uiso       1.00
     xx386          C  0.5000000  0.5000000  0.5000000    0.00000       Uiso       1.00
     xx387          C  0.5000000  0.0000000  0.7500001    0.00000       Uiso       1.00
     xx388          C  0.0000000  0.5000000  0.2500000    0.00000       Uiso       1.00
