data_COF-366-ff
_audit_creation_date              0000-00-00
_audit_creation_method            'LanYouShi'
_symmetry_space_group_name_H-M    'P1'
_cell_length_a                    25.4169998
_cell_length_b                    12.3769999
_cell_length_c                    25.4169998
_cell_angle_alpha                 90.0000000
_cell_angle_beta                  90.0000000
_cell_angle_gamma                 90.0000000
loop_
_atom_site_label
_atom_site_type_symbol
_atom_site_fract_x
_atom_site_fract_y
_atom_site_fract_z
_atom_site_U_iso_or_equiv
_atom_site_adp_type
_atom_site_occupancy
        C1          C  0.0080000  0.2360000  0.3060000    0.00000       Uiso       1.00
        C2          C  0.0340000  0.3230000  0.2830000    0.00000       Uiso       1.00
        C3          C  0.0330000  0.3390000  0.2280000    0.00000       Uiso       1.00
        C4          C  0.0430000  0.1480000  0.4660000    0.00000       Uiso       1.00
        C5          C  0.0090000  0.2650000  0.1950000    0.00000       Uiso       1.00
        C6          C  0.0070000  0.2820000  0.1370000    0.00000       Uiso       1.00
        N7          N  0.0110000  0.2240000  0.3590000    0.00000       Uiso       1.00
        C8          C  0.9830000  0.1690000  0.2180000    0.00000       Uiso       1.00
        C9          C  0.9800000  0.1570000  0.2720000    0.00000       Uiso       1.00
       C10          C  0.9830000  0.1540000  0.3890000    0.00000       Uiso       1.00
       C11          C  0.9490000  0.1460000  0.4800000    0.00000       Uiso       1.00
       C12          C  0.9920000  0.1480000  0.4450000    0.00000       Uiso       1.00
       N13          N  0.9450000  0.2870000  0.0590000    0.00000       Uiso       1.00
       C14          C  0.9550000  0.2880000  0.1120000    0.00000       Uiso       1.00
       C15          C  0.9080000  0.2900000  0.1400000    0.00000       Uiso       1.00
       C16          C  0.8920000  0.2860000  0.0550000    0.00000       Uiso       1.00
       C17          C  0.8680000  0.2860000  0.1040000    0.00000       Uiso       1.00
       H18          H  0.0544580  0.3810630  0.3074790    0.00000       Uiso       1.00
       H19          H  0.0521460  0.4092420  0.2116840    0.00000       Uiso       1.00
       H20          H  0.0768150  0.1479320  0.4400550    0.00000       Uiso       1.00
       H21          H  0.9641429  0.1101270  0.1927480    0.00000       Uiso       1.00
       H22          H  0.9584500  0.0903590  0.2887730    0.00000       Uiso       1.00
       H23          H  0.9403570  0.1618520  0.3797520    0.00000       Uiso       1.00
       H24          H  0.9090061  0.1454570  0.4652680    0.00000       Uiso       1.00
       H25          H  0.9028519  0.2918300  0.1822270    0.00000       Uiso       1.00
       H26          H  0.8267240  0.2819790  0.1138490    0.00000       Uiso       1.00
       H27          H  0.9705719  0.7192360  0.9719341    0.00000       Uiso       1.00
       C28          C  0.3060000  0.2360000  0.9920000    0.00000       Uiso       1.00
       C29          C  0.2830000  0.3230000  0.9660000    0.00000       Uiso       1.00
       C30          C  0.2280000  0.3390000  0.9670000    0.00000       Uiso       1.00
       C31          C  0.4660000  0.1480000  0.9570000    0.00000       Uiso       1.00
       C32          C  0.1950000  0.2650000  0.9910001    0.00000       Uiso       1.00
       C33          C  0.1370000  0.2820000  0.9930000    0.00000       Uiso       1.00
       N34          N  0.3590000  0.2240000  0.9890000    0.00000       Uiso       1.00
       C35          C  0.2180000  0.1690000  0.0170000    0.00000       Uiso       1.00
       C36          C  0.2720000  0.1570000  0.0200000    0.00000       Uiso       1.00
       C37          C  0.3890000  0.1540000  0.0170000    0.00000       Uiso       1.00
       C38          C  0.4800000  0.1460000  0.0510000    0.00000       Uiso       1.00
       C39          C  0.4450000  0.1480000  0.0080000    0.00000       Uiso       1.00
       N40          N  0.0590000  0.2870000  0.0550000    0.00000       Uiso       1.00
       C41          C  0.1120000  0.2880000  0.0450000    0.00000       Uiso       1.00
       C42          C  0.1400000  0.2900000  0.0920000    0.00000       Uiso       1.00
       C43          C  0.0550000  0.2860000  0.1080000    0.00000       Uiso       1.00
       C44          C  0.1040000  0.2860000  0.1320000    0.00000       Uiso       1.00
       H45          H  0.3074790  0.3810630  0.9455430    0.00000       Uiso       1.00
       H46          H  0.2116840  0.4092420  0.9478550    0.00000       Uiso       1.00
       H47          H  0.4400550  0.1479320  0.9231849    0.00000       Uiso       1.00
       H48          H  0.1927480  0.1101290  0.0358580    0.00000       Uiso       1.00
       H49          H  0.2887730  0.0903590  0.0415500    0.00000       Uiso       1.00
       H50          H  0.3797520  0.1618520  0.0596430    0.00000       Uiso       1.00
       H51          H  0.4652680  0.1454570  0.0909940    0.00000       Uiso       1.00
       H52          H  0.1822270  0.2918300  0.0971470    0.00000       Uiso       1.00
       H53          H  0.1138480  0.2819790  0.1732760    0.00000       Uiso       1.00
       C54          C  0.9920000  0.7640000  0.6940000    0.00000       Uiso       1.00
       C55          C  0.9660000  0.6770000  0.7170000    0.00000       Uiso       1.00
       C56          C  0.9670000  0.6610000  0.7720000    0.00000       Uiso       1.00
       C57          C  0.9570000  0.8520000  0.5340000    0.00000       Uiso       1.00
       C58          C  0.9910001  0.7350001  0.8050000    0.00000       Uiso       1.00
       C59          C  0.9930000  0.7179999  0.8630000    0.00000       Uiso       1.00
       N60          N  0.9890000  0.7760000  0.6410000    0.00000       Uiso       1.00
       C61          C  0.0170000  0.8310000  0.7820001    0.00000       Uiso       1.00
       C62          C  0.0200000  0.8430001  0.7280000    0.00000       Uiso       1.00
       C63          C  0.0170000  0.8460001  0.6110000    0.00000       Uiso       1.00
       C64          C  0.0510000  0.8540000  0.5200000    0.00000       Uiso       1.00
       C65          C  0.0080000  0.8520000  0.5550000    0.00000       Uiso       1.00
       N66          N  0.0550000  0.7129999  0.9410000    0.00000       Uiso       1.00
       C67          C  0.0450000  0.7120000  0.8880000    0.00000       Uiso       1.00
       C68          C  0.0920000  0.7099999  0.8600000    0.00000       Uiso       1.00
       C69          C  0.1080000  0.7139999  0.9450000    0.00000       Uiso       1.00
       C70          C  0.1320000  0.7139999  0.8960000    0.00000       Uiso       1.00
       H71          H  0.9455420  0.6189370  0.6925209    0.00000       Uiso       1.00
       H72          H  0.9478550  0.5907590  0.7883161    0.00000       Uiso       1.00
       H73          H  0.9231849  0.8520680  0.5599450    0.00000       Uiso       1.00
       H74          H  0.0358570  0.8898730  0.8072520    0.00000       Uiso       1.00
       H75          H  0.0415500  0.9096410  0.7112270    0.00000       Uiso       1.00
       H76          H  0.0596430  0.8381480  0.6202480    0.00000       Uiso       1.00
       H77          H  0.0909940  0.8545430  0.5347320    0.00000       Uiso       1.00
       H78          H  0.0971480  0.7081701  0.8177730    0.00000       Uiso       1.00
       H79          H  0.1732760  0.7180210  0.8861510    0.00000       Uiso       1.00
       H80          H  0.0294280  0.2807640  0.0280660    0.00000       Uiso       1.00
       C81          C  0.6940000  0.7640000  0.0080000    0.00000       Uiso       1.00
       C82          C  0.7170000  0.6770000  0.0340000    0.00000       Uiso       1.00
       C83          C  0.7720000  0.6610000  0.0330000    0.00000       Uiso       1.00
       C84          C  0.5340000  0.8520000  0.0430000    0.00000       Uiso       1.00
       C85          C  0.8050000  0.7350001  0.0090000    0.00000       Uiso       1.00
       C86          C  0.8630000  0.7179999  0.0070000    0.00000       Uiso       1.00
       N87          N  0.6410000  0.7760000  0.0110000    0.00000       Uiso       1.00
       C88          C  0.7820001  0.8310000  0.9830000    0.00000       Uiso       1.00
       C89          C  0.7280000  0.8430001  0.9800000    0.00000       Uiso       1.00
       C90          C  0.6110000  0.8460001  0.9830000    0.00000       Uiso       1.00
       C91          C  0.5200000  0.8540000  0.9490000    0.00000       Uiso       1.00
       C92          C  0.5550000  0.8520000  0.9920000    0.00000       Uiso       1.00
       N93          N  0.9410000  0.7129999  0.9450000    0.00000       Uiso       1.00
       C94          C  0.8880000  0.7120000  0.9550000    0.00000       Uiso       1.00
       C95          C  0.8600000  0.7099999  0.9080000    0.00000       Uiso       1.00
       C96          C  0.9450000  0.7139999  0.8920000    0.00000       Uiso       1.00
       C97          C  0.8960000  0.7139999  0.8680000    0.00000       Uiso       1.00
       H98          H  0.6925209  0.6189370  0.0544570    0.00000       Uiso       1.00
       H99          H  0.7883161  0.5907580  0.0521450    0.00000       Uiso       1.00
      H100          H  0.5599450  0.8520680  0.0768150    0.00000       Uiso       1.00
      H101          H  0.8072520  0.8898710  0.9641420    0.00000       Uiso       1.00
      H102          H  0.7112270  0.9096410  0.9584500    0.00000       Uiso       1.00
      H103          H  0.6202480  0.8381480  0.9403570    0.00000       Uiso       1.00
      H104          H  0.5347320  0.8545430  0.9090061    0.00000       Uiso       1.00
      H105          H  0.8177730  0.7081701  0.9028530    0.00000       Uiso       1.00
      H106          H  0.8861521  0.7180210  0.8267240    0.00000       Uiso       1.00
      C107          C  0.9920000  0.2360000  0.6940000    0.00000       Uiso       1.00
      C108          C  0.9660000  0.3230000  0.7170000    0.00000       Uiso       1.00
      C109          C  0.9670000  0.3390000  0.7720000    0.00000       Uiso       1.00
      C110          C  0.9570000  0.1480000  0.5340000    0.00000       Uiso       1.00
      C111          C  0.9910001  0.2650000  0.8050000    0.00000       Uiso       1.00
      C112          C  0.9930000  0.2820000  0.8630000    0.00000       Uiso       1.00
      N113          N  0.9890000  0.2240000  0.6410000    0.00000       Uiso       1.00
      C114          C  0.0170000  0.1690000  0.7820001    0.00000       Uiso       1.00
      C115          C  0.0200000  0.1570000  0.7280000    0.00000       Uiso       1.00
      C116          C  0.0170000  0.1540000  0.6110000    0.00000       Uiso       1.00
      C117          C  0.0510000  0.1460000  0.5200000    0.00000       Uiso       1.00
      C118          C  0.0080000  0.1480000  0.5550000    0.00000       Uiso       1.00
      N119          N  0.0550000  0.2870000  0.9410000    0.00000       Uiso       1.00
      C120          C  0.0450000  0.2880000  0.8880000    0.00000       Uiso       1.00
      C121          C  0.0920000  0.2900000  0.8600000    0.00000       Uiso       1.00
      C122          C  0.1080000  0.2860000  0.9450000    0.00000       Uiso       1.00
      C123          C  0.1320000  0.2860000  0.8960000    0.00000       Uiso       1.00
      H124          H  0.9455420  0.3810630  0.6925209    0.00000       Uiso       1.00
      H125          H  0.9478550  0.4092420  0.7883161    0.00000       Uiso       1.00
      H126          H  0.9231849  0.1479320  0.5599450    0.00000       Uiso       1.00
      H127          H  0.0358570  0.1101270  0.8072520    0.00000       Uiso       1.00
      H128          H  0.0415500  0.0903590  0.7112270    0.00000       Uiso       1.00
      H129          H  0.0596430  0.1618520  0.6202480    0.00000       Uiso       1.00
      H130          H  0.0909940  0.1454570  0.5347320    0.00000       Uiso       1.00
      H131          H  0.0971480  0.2918300  0.8177730    0.00000       Uiso       1.00
      H132          H  0.1732760  0.2819790  0.8861510    0.00000       Uiso       1.00
      H133          H  0.0294280  0.7192360  0.0280660    0.00000       Uiso       1.00
      C134          C  0.6940000  0.2360000  0.0080000    0.00000       Uiso       1.00
      C135          C  0.7170000  0.3230000  0.0340000    0.00000       Uiso       1.00
      C136          C  0.7720000  0.3390000  0.0330000    0.00000       Uiso       1.00
      C137          C  0.5340000  0.1480000  0.0430000    0.00000       Uiso       1.00
      C138          C  0.8050000  0.2650000  0.0090000    0.00000       Uiso       1.00
      C139          C  0.8630000  0.2820000  0.0070000    0.00000       Uiso       1.00
      N140          N  0.6410000  0.2240000  0.0110000    0.00000       Uiso       1.00
      C141          C  0.7820001  0.1690000  0.9830000    0.00000       Uiso       1.00
      C142          C  0.7280000  0.1570000  0.9800000    0.00000       Uiso       1.00
      C143          C  0.6110000  0.1540000  0.9830000    0.00000       Uiso       1.00
      C144          C  0.5200000  0.1460000  0.9490000    0.00000       Uiso       1.00
      C145          C  0.5550000  0.1480000  0.9920000    0.00000       Uiso       1.00
      N146          N  0.9410000  0.2870000  0.9450000    0.00000       Uiso       1.00
      C147          C  0.8880000  0.2880000  0.9550000    0.00000       Uiso       1.00
      C148          C  0.8600000  0.2900000  0.9080000    0.00000       Uiso       1.00
      C149          C  0.9450000  0.2860000  0.8920000    0.00000       Uiso       1.00
      C150          C  0.8960000  0.2860000  0.8680000    0.00000       Uiso       1.00
      H151          H  0.6925209  0.3810630  0.0544570    0.00000       Uiso       1.00
      H152          H  0.7883161  0.4092420  0.0521450    0.00000       Uiso       1.00
      H153          H  0.5599450  0.1479320  0.0768150    0.00000       Uiso       1.00
      H154          H  0.8072520  0.1101290  0.9641420    0.00000       Uiso       1.00
      H155          H  0.7112270  0.0903590  0.9584500    0.00000       Uiso       1.00
      H156          H  0.6202480  0.1618520  0.9403570    0.00000       Uiso       1.00
      H157          H  0.5347320  0.1454570  0.9090061    0.00000       Uiso       1.00
      H158          H  0.8177730  0.2918300  0.9028530    0.00000       Uiso       1.00
      H159          H  0.8861521  0.2819790  0.8267240    0.00000       Uiso       1.00
      C160          C  0.0080000  0.7640000  0.3060000    0.00000       Uiso       1.00
      C161          C  0.0340000  0.6770000  0.2830000    0.00000       Uiso       1.00
      C162          C  0.0330000  0.6610000  0.2280000    0.00000       Uiso       1.00
      C163          C  0.0430000  0.8520000  0.4660000    0.00000       Uiso       1.00
      C164          C  0.0090000  0.7350001  0.1950000    0.00000       Uiso       1.00
      C165          C  0.0070000  0.7179999  0.1370000    0.00000       Uiso       1.00
      N166          N  0.0110000  0.7760000  0.3590000    0.00000       Uiso       1.00
      C167          C  0.9830000  0.8310000  0.2180000    0.00000       Uiso       1.00
      C168          C  0.9800000  0.8430001  0.2720000    0.00000       Uiso       1.00
      C169          C  0.9830000  0.8460001  0.3890000    0.00000       Uiso       1.00
      C170          C  0.9490000  0.8540000  0.4800000    0.00000       Uiso       1.00
      C171          C  0.9920000  0.8520000  0.4450000    0.00000       Uiso       1.00
      N172          N  0.9450000  0.7129999  0.0590000    0.00000       Uiso       1.00
      C173          C  0.9550000  0.7120000  0.1120000    0.00000       Uiso       1.00
      C174          C  0.9080000  0.7099999  0.1400000    0.00000       Uiso       1.00
      C175          C  0.8920000  0.7139999  0.0550000    0.00000       Uiso       1.00
      C176          C  0.8680000  0.7139999  0.1040000    0.00000       Uiso       1.00
      H177          H  0.0544580  0.6189370  0.3074790    0.00000       Uiso       1.00
      H178          H  0.0521460  0.5907590  0.2116840    0.00000       Uiso       1.00
      H179          H  0.0768150  0.8520680  0.4400550    0.00000       Uiso       1.00
      H180          H  0.9641429  0.8898730  0.1927480    0.00000       Uiso       1.00
      H181          H  0.9584500  0.9096410  0.2887730    0.00000       Uiso       1.00
      H182          H  0.9403570  0.8381480  0.3797520    0.00000       Uiso       1.00
      H183          H  0.9090061  0.8545430  0.4652680    0.00000       Uiso       1.00
      H184          H  0.9028519  0.7081701  0.1822270    0.00000       Uiso       1.00
      H185          H  0.8267240  0.7180210  0.1138490    0.00000       Uiso       1.00
      H186          H  0.9705719  0.2807640  0.9719341    0.00000       Uiso       1.00
      C187          C  0.3060000  0.7640000  0.9920000    0.00000       Uiso       1.00
      C188          C  0.2830000  0.6770000  0.9660000    0.00000       Uiso       1.00
      C189          C  0.2280000  0.6610000  0.9670000    0.00000       Uiso       1.00
      C190          C  0.4660000  0.8520000  0.9570000    0.00000       Uiso       1.00
      C191          C  0.1950000  0.7350001  0.9910001    0.00000       Uiso       1.00
      C192          C  0.1370000  0.7179999  0.9930000    0.00000       Uiso       1.00
      N193          N  0.3590000  0.7760000  0.9890000    0.00000       Uiso       1.00
      C194          C  0.2180000  0.8310000  0.0170000    0.00000       Uiso       1.00
      C195          C  0.2720000  0.8430001  0.0200000    0.00000       Uiso       1.00
      C196          C  0.3890000  0.8460001  0.0170000    0.00000       Uiso       1.00
      C197          C  0.4800000  0.8540000  0.0510000    0.00000       Uiso       1.00
      C198          C  0.4450000  0.8520000  0.0080000    0.00000       Uiso       1.00
      N199          N  0.0590000  0.7129999  0.0550000    0.00000       Uiso       1.00
      C200          C  0.1120000  0.7120000  0.0450000    0.00000       Uiso       1.00
      C201          C  0.1400000  0.7099999  0.0920000    0.00000       Uiso       1.00
      C202          C  0.0550000  0.7139999  0.1080000    0.00000       Uiso       1.00
      C203          C  0.1040000  0.7139999  0.1320000    0.00000       Uiso       1.00
      H204          H  0.3074790  0.6189370  0.9455430    0.00000       Uiso       1.00
      H205          H  0.2116840  0.5907580  0.9478550    0.00000       Uiso       1.00
      H206          H  0.4400550  0.8520680  0.9231849    0.00000       Uiso       1.00
      H207          H  0.1927480  0.8898710  0.0358580    0.00000       Uiso       1.00
      H208          H  0.2887730  0.9096410  0.0415500    0.00000       Uiso       1.00
      H209          H  0.3797520  0.8381480  0.0596430    0.00000       Uiso       1.00
      H210          H  0.4652680  0.8545430  0.0909940    0.00000       Uiso       1.00
      H211          H  0.1822270  0.7081701  0.0971470    0.00000       Uiso       1.00
      H212          H  0.1138480  0.7180210  0.1732760    0.00000       Uiso       1.00
