data_COF-42-gra
_audit_creation_date              0000-00-00
_audit_creation_method            'LanYouShi'
_symmetry_space_group_name_H-M    'P1'
_cell_length_a                    30.4759998
_cell_length_b                    30.4759998
_cell_length_c                    6.5811000
_cell_angle_alpha                 90.0000000
_cell_angle_beta                  90.0000000
_cell_angle_gamma                 120.0000000
loop_
_atom_site_label
_atom_site_type_symbol
_atom_site_fract_x
_atom_site_fract_y
_atom_site_fract_z
_atom_site_U_iso_or_equiv
_atom_site_adp_type
_atom_site_occupancy
        H1          H  0.0283000  0.2900000  0.6140000    0.00000       Uiso       1.00
        H2          H  0.9458000  0.2708000  0.8886000    0.00000       Uiso       1.00
        H3          H  0.6818000  0.0306000  0.6115001    0.00000       Uiso       1.00
        H4          H  0.6118000  0.0496000  0.8875000    0.00000       Uiso       1.00
        H5          H  0.7100000  0.7383000  0.6140000    0.00000       Uiso       1.00
        H6          H  0.7292000  0.6750001  0.8886000    0.00000       Uiso       1.00
        H7          H  0.9694000  0.6512000  0.6115001    0.00000       Uiso       1.00
        H8          H  0.9504000  0.5622000  0.8875000    0.00000       Uiso       1.00
        H9          H  0.2617000  0.9717000  0.6140000    0.00000       Uiso       1.00
       H10          H  0.3250000  0.0542000  0.8886000    0.00000       Uiso       1.00
       H11          H  0.3488000  0.3182000  0.6115001    0.00000       Uiso       1.00
       H12          H  0.4378000  0.3882000  0.8875000    0.00000       Uiso       1.00
       H13          H  0.9717000  0.7100000  0.1140000    0.00000       Uiso       1.00
       H14          H  0.0542000  0.7291999  0.3886000    0.00000       Uiso       1.00
       H15          H  0.3182000  0.9693999  0.1115000    0.00000       Uiso       1.00
       H16          H  0.3882000  0.9504001  0.3875000    0.00000       Uiso       1.00
       H17          H  0.2900000  0.2617000  0.1140000    0.00000       Uiso       1.00
       H18          H  0.2708000  0.3250000  0.3886000    0.00000       Uiso       1.00
       H19          H  0.0306000  0.3488000  0.1115000    0.00000       Uiso       1.00
       H20          H  0.0496000  0.4378000  0.3875000    0.00000       Uiso       1.00
       H21          H  0.7383000  0.0283000  0.1140000    0.00000       Uiso       1.00
       H22          H  0.6750000  0.9458000  0.3886000    0.00000       Uiso       1.00
       H23          H  0.6512000  0.6818000  0.1115000    0.00000       Uiso       1.00
       H24          H  0.5622000  0.6118000  0.3875000    0.00000       Uiso       1.00
       H25          H  0.9717000  0.7100000  0.3860000    0.00000       Uiso       1.00
       H26          H  0.0542000  0.7291999  0.1114000    0.00000       Uiso       1.00
       H27          H  0.3182000  0.9693999  0.3885000    0.00000       Uiso       1.00
       H28          H  0.3882000  0.9504001  0.1125000    0.00000       Uiso       1.00
       H29          H  0.2900000  0.2617000  0.3860000    0.00000       Uiso       1.00
       H30          H  0.2708000  0.3250000  0.1114000    0.00000       Uiso       1.00
       H31          H  0.0306000  0.3488000  0.3885000    0.00000       Uiso       1.00
       H32          H  0.0496000  0.4378000  0.1125000    0.00000       Uiso       1.00
       H33          H  0.7383000  0.0283000  0.3860000    0.00000       Uiso       1.00
       H34          H  0.6750000  0.9458000  0.1114000    0.00000       Uiso       1.00
       H35          H  0.6512000  0.6818000  0.3885000    0.00000       Uiso       1.00
       H36          H  0.5622000  0.6118000  0.1125000    0.00000       Uiso       1.00
       H37          H  0.0283000  0.2900000  0.8860000    0.00000       Uiso       1.00
       H38          H  0.9458000  0.2708000  0.6114000    0.00000       Uiso       1.00
       H39          H  0.6818000  0.0306000  0.8885000    0.00000       Uiso       1.00
       H40          H  0.6118000  0.0496000  0.6125000    0.00000       Uiso       1.00
       H41          H  0.7100000  0.7383000  0.8860000    0.00000       Uiso       1.00
       H42          H  0.7292000  0.6750001  0.6114000    0.00000       Uiso       1.00
       H43          H  0.9694000  0.6512000  0.8885000    0.00000       Uiso       1.00
       H44          H  0.9504000  0.5622000  0.6125000    0.00000       Uiso       1.00
       H45          H  0.2617000  0.9717000  0.8860000    0.00000       Uiso       1.00
       H46          H  0.3250000  0.0542000  0.6114000    0.00000       Uiso       1.00
       H47          H  0.3488000  0.3182000  0.8885000    0.00000       Uiso       1.00
       H48          H  0.4378000  0.3882000  0.6125000    0.00000       Uiso       1.00
       H49          H  0.8644000  0.2433000  0.7500000    0.00000       Uiso       1.00
       H50          H  0.7637000  0.0566000  0.7500000    0.00000       Uiso       1.00
       H51          H  0.9430000  0.1422000  0.7500000    0.00000       Uiso       1.00
       H52          H  0.0067000  0.1188000  0.7500000    0.00000       Uiso       1.00
       H53          H  0.0684000  0.0899000  0.7500000    0.00000       Uiso       1.00
       H54          H  0.6279000  0.2017000  0.7500000    0.00000       Uiso       1.00
       H55          H  0.7473000  0.3318000  0.7500000    0.00000       Uiso       1.00
       H56          H  0.8384000  0.5228000  0.7500000    0.00000       Uiso       1.00
       H57          H  0.0119000  0.2329000  0.7500000    0.00000       Uiso       1.00
       H58          H  0.5949000  0.9919000  0.7500000    0.00000       Uiso       1.00
       C59          C  0.7625000  0.4257000  0.7500000    0.00000       Uiso       1.00
       C60          C  0.7867000  0.5539000  0.7500000    0.00000       Uiso       1.00
       C61          C  0.8214000  0.6102000  0.7500000    0.00000       Uiso       1.00
       C62          C  0.8750000  0.6349000  0.7500000    0.00000       Uiso       1.00
       C63          C  0.9026000  0.6882000  0.7500000    0.00000       Uiso       1.00
       C64          C  0.8786000  0.7178000  0.7500000    0.00000       Uiso       1.00
       C65          C  0.7975000  0.6397001  0.7500000    0.00000       Uiso       1.00
       C66          C  0.8247000  0.6925000  0.7500000    0.00000       Uiso       1.00
       C67          C  0.9127001  0.7746001  0.7500000    0.00000       Uiso       1.00
       C68          C  0.9205000  0.8970000  0.7500000    0.00000       Uiso       1.00
       C69          C  0.0084000  0.2675000  0.7500000    0.00000       Uiso       1.00
       C70          C  0.6750000  0.0470000  0.7500000    0.00000       Uiso       1.00
       C71          C  0.6199000  0.0337000  0.7500000    0.00000       Uiso       1.00
       N72          N  0.7609000  0.4669000  0.7500000    0.00000       Uiso       1.00
       N73          N  0.8014000  0.5161000  0.7500000    0.00000       Uiso       1.00
       N74          N  0.8956000  0.8106000  0.7500000    0.00000       Uiso       1.00
       N75          N  0.9319000  0.8617000  0.7500000    0.00000       Uiso       1.00
       O76          O  0.7410000  0.5380000  0.7500000    0.00000       Uiso       1.00
       O77          O  0.9585000  0.7918000  0.7500000    0.00000       Uiso       1.00
       O78          O  0.7066000  0.1009000  0.7500000    0.00000       Uiso       1.00
       O79          O  0.7994000  0.7205000  0.7500000    0.00000       Uiso       1.00
       H80          H  0.7567000  0.6211000  0.7500000    0.00000       Uiso       1.00
       H81          H  0.9434000  0.7071000  0.7500000    0.00000       Uiso       1.00
       H82          H  0.8578000  0.8008000  0.7500000    0.00000       Uiso       1.00
       H83          H  0.8812000  0.8879000  0.7500000    0.00000       Uiso       1.00
       H84          H  0.9101000  0.9785000  0.7500000    0.00000       Uiso       1.00
       H85          H  0.7983000  0.4262000  0.7500000    0.00000       Uiso       1.00
       H86          H  0.6682000  0.4155000  0.7500000    0.00000       Uiso       1.00
       H87          H  0.4772000  0.3156000  0.7500000    0.00000       Uiso       1.00
       H88          H  0.7671000  0.7790000  0.7500000    0.00000       Uiso       1.00
       H89          H  0.0081000  0.6030000  0.7500000    0.00000       Uiso       1.00
       C90          C  0.5743000  0.3368000  0.7500000    0.00000       Uiso       1.00
       C91          C  0.4461000  0.2328000  0.7500000    0.00000       Uiso       1.00
       C92          C  0.3898000  0.2112000  0.7500000    0.00000       Uiso       1.00
       C93          C  0.3651000  0.2401000  0.7500000    0.00000       Uiso       1.00
       C94          C  0.3118000  0.2144000  0.7500000    0.00000       Uiso       1.00
       C95          C  0.2822000  0.1608000  0.7500000    0.00000       Uiso       1.00
       C96          C  0.3603000  0.1578000  0.7500000    0.00000       Uiso       1.00
       C97          C  0.3075000  0.1322000  0.7500000    0.00000       Uiso       1.00
       C98          C  0.2254000  0.1381000  0.7500000    0.00000       Uiso       1.00
       C99          C  0.1030000  0.0235000  0.7500000    0.00000       Uiso       1.00
      C100          C  0.7325000  0.7409000  0.7500000    0.00000       Uiso       1.00
      C101          C  0.9530000  0.6280000  0.7500000    0.00000       Uiso       1.00
      C102          C  0.9663000  0.5862000  0.7500000    0.00000       Uiso       1.00
      N103          N  0.5331000  0.2940000  0.7500000    0.00000       Uiso       1.00
      N104          N  0.4839000  0.2853000  0.7500000    0.00000       Uiso       1.00
      N105          N  0.1894000  0.0850000  0.7500000    0.00000       Uiso       1.00
      N106          N  0.1383000  0.0702000  0.7500000    0.00000       Uiso       1.00
      O107          O  0.4620000  0.2030000  0.7500000    0.00000       Uiso       1.00
      O108          O  0.2082000  0.1667000  0.7500000    0.00000       Uiso       1.00
      O109          O  0.8991000  0.6057000  0.7500000    0.00000       Uiso       1.00
      O110          O  0.2795000  0.0789000  0.7500000    0.00000       Uiso       1.00
      H111          H  0.3789000  0.1356000  0.7500000    0.00000       Uiso       1.00
      H112          H  0.2929000  0.2363000  0.7500000    0.00000       Uiso       1.00
      H113          H  0.1992000  0.0570000  0.7500000    0.00000       Uiso       1.00
      H114          H  0.1121000  0.9933000  0.7500000    0.00000       Uiso       1.00
      H115          H  0.0215000  0.9316000  0.7500000    0.00000       Uiso       1.00
      H116          H  0.5738000  0.3721000  0.7500000    0.00000       Uiso       1.00
      H117          H  0.5845000  0.2527000  0.7500000    0.00000       Uiso       1.00
      H118          H  0.6844001  0.1616000  0.7500000    0.00000       Uiso       1.00
      H119          H  0.2210000  0.9881000  0.7500000    0.00000       Uiso       1.00
      H120          H  0.3970000  0.4051000  0.7500000    0.00000       Uiso       1.00
      C121          C  0.6632000  0.2375000  0.7500000    0.00000       Uiso       1.00
      C122          C  0.7672000  0.2133000  0.7500000    0.00000       Uiso       1.00
      C123          C  0.7888000  0.1786000  0.7500000    0.00000       Uiso       1.00
      C124          C  0.7599000  0.1250000  0.7500000    0.00000       Uiso       1.00
      C125          C  0.7856000  0.0974000  0.7500000    0.00000       Uiso       1.00
      C126          C  0.8392000  0.1214000  0.7500000    0.00000       Uiso       1.00
      C127          C  0.8422000  0.2025000  0.7500000    0.00000       Uiso       1.00
      C128          C  0.8678000  0.1753000  0.7500000    0.00000       Uiso       1.00
      C129          C  0.8618999  0.0873000  0.7500000    0.00000       Uiso       1.00
      C130          C  0.9765000  0.0795000  0.7500000    0.00000       Uiso       1.00
      C131          C  0.2591000  0.9915999  0.7500000    0.00000       Uiso       1.00
      C132          C  0.3720000  0.3250000  0.7500000    0.00000       Uiso       1.00
      C133          C  0.4138000  0.3801000  0.7500000    0.00000       Uiso       1.00
      N134          N  0.7060000  0.2391000  0.7500000    0.00000       Uiso       1.00
      N135          N  0.7147000  0.1986000  0.7500000    0.00000       Uiso       1.00
      N136          N  0.9150000  0.1044000  0.7500000    0.00000       Uiso       1.00
      N137          N  0.9298000  0.0681000  0.7500000    0.00000       Uiso       1.00
      O138          O  0.7970000  0.2590000  0.7500000    0.00000       Uiso       1.00
      O139          O  0.8333000  0.0415000  0.7500000    0.00000       Uiso       1.00
      O140          O  0.3943000  0.2934000  0.7500000    0.00000       Uiso       1.00
      O141          O  0.9211000  0.2006000  0.7500000    0.00000       Uiso       1.00
      H142          H  0.1356000  0.7567000  0.2500000    0.00000       Uiso       1.00
      H143          H  0.2363000  0.9434000  0.2500000    0.00000       Uiso       1.00
      H144          H  0.0570000  0.8578000  0.2500000    0.00000       Uiso       1.00
      H145          H  0.9933000  0.8812000  0.2500000    0.00000       Uiso       1.00
      H146          H  0.9316000  0.9101000  0.2500000    0.00000       Uiso       1.00
      H147          H  0.3721000  0.7983000  0.2500000    0.00000       Uiso       1.00
      H148          H  0.2527000  0.6682000  0.2500000    0.00000       Uiso       1.00
      H149          H  0.1616000  0.4772000  0.2500000    0.00000       Uiso       1.00
      H150          H  0.9880999  0.7671000  0.2500000    0.00000       Uiso       1.00
      H151          H  0.4051000  0.0081000  0.2500000    0.00000       Uiso       1.00
      C152          C  0.2375000  0.5743000  0.2500000    0.00000       Uiso       1.00
      C153          C  0.2133000  0.4461000  0.2500000    0.00000       Uiso       1.00
      C154          C  0.1786000  0.3898000  0.2500000    0.00000       Uiso       1.00
      C155          C  0.1250000  0.3651000  0.2500000    0.00000       Uiso       1.00
      C156          C  0.0974000  0.3118000  0.2500000    0.00000       Uiso       1.00
      C157          C  0.1214000  0.2822000  0.2500000    0.00000       Uiso       1.00
      C158          C  0.2025000  0.3603000  0.2500000    0.00000       Uiso       1.00
      C159          C  0.1753000  0.3075000  0.2500000    0.00000       Uiso       1.00
      C160          C  0.0873000  0.2254000  0.2500000    0.00000       Uiso       1.00
      C161          C  0.0795000  0.1030000  0.2500000    0.00000       Uiso       1.00
      C162          C  0.9915999  0.7325000  0.2500000    0.00000       Uiso       1.00
      C163          C  0.3250000  0.9530000  0.2500000    0.00000       Uiso       1.00
      C164          C  0.3801000  0.9663000  0.2500000    0.00000       Uiso       1.00
      N165          N  0.2391000  0.5331000  0.2500000    0.00000       Uiso       1.00
      N166          N  0.1986000  0.4839000  0.2500000    0.00000       Uiso       1.00
      N167          N  0.1044000  0.1894000  0.2500000    0.00000       Uiso       1.00
      N168          N  0.0681000  0.1383000  0.2500000    0.00000       Uiso       1.00
      O169          O  0.2590000  0.4620000  0.2500000    0.00000       Uiso       1.00
      O170          O  0.0415000  0.2082000  0.2500000    0.00000       Uiso       1.00
      O171          O  0.2934000  0.8990999  0.2500000    0.00000       Uiso       1.00
      O172          O  0.2006000  0.2795000  0.2500000    0.00000       Uiso       1.00
      H173          H  0.2433000  0.3789000  0.2500000    0.00000       Uiso       1.00
      H174          H  0.0566000  0.2929000  0.2500000    0.00000       Uiso       1.00
      H175          H  0.1422000  0.1992000  0.2500000    0.00000       Uiso       1.00
      H176          H  0.1188000  0.1121000  0.2500000    0.00000       Uiso       1.00
      H177          H  0.0899000  0.0215000  0.2500000    0.00000       Uiso       1.00
      H178          H  0.2017000  0.5738000  0.2500000    0.00000       Uiso       1.00
      H179          H  0.3318000  0.5845000  0.2500000    0.00000       Uiso       1.00
      H180          H  0.5228000  0.6844000  0.2500000    0.00000       Uiso       1.00
      H181          H  0.2329000  0.2210000  0.2500000    0.00000       Uiso       1.00
      H182          H  0.9919000  0.3970000  0.2500000    0.00000       Uiso       1.00
      C183          C  0.4257000  0.6632000  0.2500000    0.00000       Uiso       1.00
      C184          C  0.5539000  0.7672000  0.2500000    0.00000       Uiso       1.00
      C185          C  0.6102000  0.7888000  0.2500000    0.00000       Uiso       1.00
      C186          C  0.6349000  0.7599000  0.2500000    0.00000       Uiso       1.00
      C187          C  0.6882000  0.7856000  0.2500000    0.00000       Uiso       1.00
      C188          C  0.7178000  0.8392000  0.2500000    0.00000       Uiso       1.00
      C189          C  0.6397000  0.8422000  0.2500000    0.00000       Uiso       1.00
      C190          C  0.6925000  0.8678000  0.2500000    0.00000       Uiso       1.00
      C191          C  0.7746000  0.8619000  0.2500000    0.00000       Uiso       1.00
      C192          C  0.8970000  0.9765000  0.2500000    0.00000       Uiso       1.00
      C193          C  0.2675000  0.2591000  0.2500000    0.00000       Uiso       1.00
      C194          C  0.0470000  0.3720000  0.2500000    0.00000       Uiso       1.00
      C195          C  0.0337000  0.4138000  0.2500000    0.00000       Uiso       1.00
      N196          N  0.4669000  0.7060000  0.2500000    0.00000       Uiso       1.00
      N197          N  0.5161000  0.7147000  0.2500000    0.00000       Uiso       1.00
      N198          N  0.8106000  0.9150000  0.2500000    0.00000       Uiso       1.00
      N199          N  0.8617000  0.9298000  0.2500000    0.00000       Uiso       1.00
      O200          O  0.5380000  0.7970000  0.2500000    0.00000       Uiso       1.00
      O201          O  0.7918000  0.8333000  0.2500000    0.00000       Uiso       1.00
      O202          O  0.1009000  0.3943000  0.2500000    0.00000       Uiso       1.00
      O203          O  0.7205000  0.9211000  0.2500000    0.00000       Uiso       1.00
      H204          H  0.6211000  0.8644001  0.2500000    0.00000       Uiso       1.00
      H205          H  0.7071000  0.7637000  0.2500000    0.00000       Uiso       1.00
      H206          H  0.8008000  0.9430000  0.2500000    0.00000       Uiso       1.00
      H207          H  0.8879000  0.0067000  0.2500000    0.00000       Uiso       1.00
      H208          H  0.9785000  0.0684000  0.2500000    0.00000       Uiso       1.00
      H209          H  0.4262000  0.6279000  0.2500000    0.00000       Uiso       1.00
      H210          H  0.4155000  0.7473000  0.2500000    0.00000       Uiso       1.00
      H211          H  0.3156000  0.8384001  0.2500000    0.00000       Uiso       1.00
      H212          H  0.7790000  0.0119000  0.2500000    0.00000       Uiso       1.00
      H213          H  0.6030000  0.5949000  0.2500000    0.00000       Uiso       1.00
      C214          C  0.3368000  0.7625000  0.2500000    0.00000       Uiso       1.00
      C215          C  0.2328000  0.7867000  0.2500000    0.00000       Uiso       1.00
      C216          C  0.2112000  0.8214000  0.2500000    0.00000       Uiso       1.00
      C217          C  0.2401000  0.8750000  0.2500000    0.00000       Uiso       1.00
      C218          C  0.2144000  0.9026000  0.2500000    0.00000       Uiso       1.00
      C219          C  0.1608000  0.8786000  0.2500000    0.00000       Uiso       1.00
      C220          C  0.1578000  0.7975000  0.2500000    0.00000       Uiso       1.00
      C221          C  0.1322000  0.8247000  0.2500000    0.00000       Uiso       1.00
      C222          C  0.1381000  0.9127000  0.2500000    0.00000       Uiso       1.00
      C223          C  0.0235000  0.9205000  0.2500000    0.00000       Uiso       1.00
      C224          C  0.7409000  0.0084000  0.2500000    0.00000       Uiso       1.00
      C225          C  0.6280000  0.6750001  0.2500000    0.00000       Uiso       1.00
      C226          C  0.5862000  0.6198999  0.2500000    0.00000       Uiso       1.00
      N227          N  0.2940000  0.7609000  0.2500000    0.00000       Uiso       1.00
      N228          N  0.2853000  0.8014000  0.2500000    0.00000       Uiso       1.00
      N229          N  0.0850000  0.8956000  0.2500000    0.00000       Uiso       1.00
      N230          N  0.0702000  0.9319000  0.2500000    0.00000       Uiso       1.00
      O231          O  0.2030000  0.7410000  0.2500000    0.00000       Uiso       1.00
      O232          O  0.1667000  0.9585000  0.2500000    0.00000       Uiso       1.00
      O233          O  0.6057000  0.7066000  0.2500000    0.00000       Uiso       1.00
      O234          O  0.0789000  0.7993999  0.2500000    0.00000       Uiso       1.00
      C235          C  0.0506000  0.0120000  0.2500000    0.00000       Uiso       1.00
      C236          C  0.0388000  0.0505000  0.2500000    0.00000       Uiso       1.00
      C237          C  0.3321000  0.6203001  0.2500000    0.00000       Uiso       1.00
      C238          C  0.3785000  0.6650000  0.2500000    0.00000       Uiso       1.00
      C239          C  0.2545000  0.3015000  0.2500000    0.00000       Uiso       1.00
      C240          C  0.9880000  0.0386000  0.2500000    0.00000       Uiso       1.00
      C241          C  0.9495000  0.9883000  0.2500000    0.00000       Uiso       1.00
      C242          C  0.3797000  0.7118000  0.2500000    0.00000       Uiso       1.00
      C243          C  0.3350000  0.7135001  0.2500000    0.00000       Uiso       1.00
      C244          C  0.6985000  0.9530000  0.2500000    0.00000       Uiso       1.00
      C245          C  0.9614000  0.9494000  0.2500000    0.00000       Uiso       1.00
      C246          C  0.0117000  0.9612000  0.2500000    0.00000       Uiso       1.00
      C247          C  0.2882000  0.6679000  0.2500000    0.00000       Uiso       1.00
      C248          C  0.2865000  0.6215000  0.2500000    0.00000       Uiso       1.00
      C249          C  0.0470000  0.7455000  0.2500000    0.00000       Uiso       1.00
      C250          C  0.9494000  0.9880000  0.7500000    0.00000       Uiso       1.00
      C251          C  0.9612000  0.9495000  0.7500000    0.00000       Uiso       1.00
      C252          C  0.6679000  0.3797000  0.7500000    0.00000       Uiso       1.00
      C253          C  0.6215000  0.3350000  0.7500000    0.00000       Uiso       1.00
      C254          C  0.7455000  0.6985000  0.7500000    0.00000       Uiso       1.00
      C255          C  0.0120000  0.9614000  0.7500000    0.00000       Uiso       1.00
      C256          C  0.0505000  0.0117000  0.7500000    0.00000       Uiso       1.00
      C257          C  0.6203000  0.2882000  0.7500000    0.00000       Uiso       1.00
      C258          C  0.6650000  0.2865000  0.7500000    0.00000       Uiso       1.00
      C259          C  0.3015000  0.0470000  0.7500000    0.00000       Uiso       1.00
      C260          C  0.0386000  0.0506000  0.7500000    0.00000       Uiso       1.00
      C261          C  0.9883000  0.0388000  0.7500000    0.00000       Uiso       1.00
      C262          C  0.7118000  0.3321000  0.7500000    0.00000       Uiso       1.00
      C263          C  0.7135000  0.3785000  0.7500000    0.00000       Uiso       1.00
      C264          C  0.9530000  0.2545000  0.7500000    0.00000       Uiso       1.00
