data_COF-43-bnn
_audit_creation_date              0000-00-00
_audit_creation_method            'LanYouShi'
_symmetry_space_group_name_H-M    'P1'
_cell_length_a                    45.8876991
_cell_length_b                    45.8876991
_cell_length_c                    3.9784000
_cell_angle_alpha                 90.0000000
_cell_angle_beta                  90.0000000
_cell_angle_gamma                 120.0000000
loop_
_atom_site_label
_atom_site_type_symbol
_atom_site_fract_x
_atom_site_fract_y
_atom_site_fract_z
_atom_site_U_iso_or_equiv
_atom_site_adp_type
_atom_site_occupancy
        H1          H  0.5706000  0.6333000  0.2232000    0.00000       Uiso       1.00
        H2          H  0.5805000  0.5845000  0.2259000    0.00000       Uiso       1.00
        H3          H  0.3667000  0.9373000  0.2232000    0.00000       Uiso       1.00
        H4          H  0.4155000  0.9959999  0.2259000    0.00000       Uiso       1.00
        H5          H  0.0627000  0.4294000  0.2232000    0.00000       Uiso       1.00
        H6          H  0.0040000  0.4195000  0.2259000    0.00000       Uiso       1.00
        H7          H  0.4294000  0.3667000  0.2232000    0.00000       Uiso       1.00
        H8          H  0.4195000  0.4155000  0.2259000    0.00000       Uiso       1.00
        H9          H  0.6333000  0.0627000  0.2232000    0.00000       Uiso       1.00
       H10          H  0.5845000  0.0040000  0.2259000    0.00000       Uiso       1.00
       H11          H  0.9373000  0.5706000  0.2232000    0.00000       Uiso       1.00
       H12          H  0.9960000  0.5805000  0.2259000    0.00000       Uiso       1.00
       H13          H  0.4294000  0.3667000 -0.2232000    0.00000       Uiso       1.00
       H14          H  0.4195000  0.4155000 -0.2259000    0.00000       Uiso       1.00
       H15          H  0.6333000  0.0627000 -0.2232000    0.00000       Uiso       1.00
       H16          H  0.5845000  0.0040000 -0.2259000    0.00000       Uiso       1.00
       H17          H  0.9373000  0.5706000 -0.2232000    0.00000       Uiso       1.00
       H18          H  0.9960000  0.5805000 -0.2259000    0.00000       Uiso       1.00
       H19          H  0.5706000  0.6333000 -0.2232000    0.00000       Uiso       1.00
       H20          H  0.5805000  0.5845000 -0.2259000    0.00000       Uiso       1.00
       H21          H  0.3667000  0.9373000 -0.2232000    0.00000       Uiso       1.00
       H22          H  0.4155000  0.9959999 -0.2259000    0.00000       Uiso       1.00
       H23          H  0.0627000  0.4294000 -0.2232000    0.00000       Uiso       1.00
       H24          H  0.0040000  0.4195000 -0.2259000    0.00000       Uiso       1.00
       H25          H  0.4287000  0.8167000  0.0000000    0.00000       Uiso       1.00
       H26          H  0.4109000  0.7582000  0.0000000    0.00000       Uiso       1.00
       H27          H  0.3259000  0.7943000  0.0000000    0.00000       Uiso       1.00
       H28          H  0.3066000  0.7355000  0.0000000    0.00000       Uiso       1.00
       H29          H  0.3710000  0.8539001  0.0000000    0.00000       Uiso       1.00
       H30          H  0.4151000  0.9107999  0.0000000    0.00000       Uiso       1.00
       H31          H  0.3936000  0.7078000  0.0000000    0.00000       Uiso       1.00
       H32          H  0.5619000  0.5319000  0.0000000    0.00000       Uiso       1.00
       H33          H  0.6088000  0.6428000  0.0000000    0.00000       Uiso       1.00
       C34          C  0.4653000  0.4820000  0.0000000    0.00000       Uiso       1.00
       C35          C  0.4815000  0.5176000  0.0000000    0.00000       Uiso       1.00
       C36          C  0.4592000  0.5332000  0.0000000    0.00000       Uiso       1.00
       C37          C  0.5171000  0.5358000  0.0000000    0.00000       Uiso       1.00
       C38          C  0.4564000  0.6103000  0.0000000    0.00000       Uiso       1.00
       C39          C  0.3676000  0.6900000  0.0000000    0.00000       Uiso       1.00
       C40          C  0.3445000  0.7019000  0.0000000    0.00000       Uiso       1.00
       C41          C  0.8099000  0.4312000  0.0000000    0.00000       Uiso       1.00
       C42          C  0.7395000  0.3831000  0.0000000    0.00000       Uiso       1.00
       C43          C  0.7987000  0.3967000  0.0000000    0.00000       Uiso       1.00
       C44          C  0.7862000  0.4417000  0.0000000    0.00000       Uiso       1.00
       C45          C  0.7643000  0.3731000  0.0000000    0.00000       Uiso       1.00
       C46          C  0.7517000  0.4183000  0.0000000    0.00000       Uiso       1.00
       C47          C  0.5701000  0.5902000  0.0000000    0.00000       Uiso       1.00
       C48          C  0.5809000  0.6272000  0.0000000    0.00000       Uiso       1.00
       O49          O  0.4288000  0.5141000  0.0000000    0.00000       Uiso       1.00
       O50          O  0.5342000  0.5712000  0.0000000    0.00000       Uiso       1.00
       N51          N  0.4704000  0.5671000  0.0000000    0.00000       Uiso       1.00
       N52          N  0.4471000  0.5786000  0.0000000    0.00000       Uiso       1.00
       H53          H  0.1833000  0.6120000  0.0000000    0.00000       Uiso       1.00
       H54          H  0.2418000  0.6527000  0.0000000    0.00000       Uiso       1.00
       H55          H  0.2057000  0.5316000  0.0000000    0.00000       Uiso       1.00
       H56          H  0.2645000  0.5711000  0.0000000    0.00000       Uiso       1.00
       H57          H  0.1461000  0.5171000  0.0000000    0.00000       Uiso       1.00
       H58          H  0.0892000  0.5043000  0.0000000    0.00000       Uiso       1.00
       H59          H  0.2922000  0.6858000  0.0000000    0.00000       Uiso       1.00
       H60          H  0.4681000  0.0300000  0.0000000    0.00000       Uiso       1.00
       H61          H  0.3572000  0.9660000  0.0000000    0.00000       Uiso       1.00
       C62          C  0.5180000  0.9833000  0.0000000    0.00000       Uiso       1.00
       C63          C  0.4824000  0.9639000  0.0000000    0.00000       Uiso       1.00
       C64          C  0.4668000  0.9260000  0.0000000    0.00000       Uiso       1.00
       C65          C  0.4642000  0.9813000  0.0000000    0.00000       Uiso       1.00
       C66          C  0.3897000  0.8461000  0.0000000    0.00000       Uiso       1.00
       C67          C  0.3100000  0.6776000  0.0000000    0.00000       Uiso       1.00
       C68          C  0.2981000  0.6426000  0.0000000    0.00000       Uiso       1.00
       C69          C  0.5688000  0.3787000  0.0000000    0.00000       Uiso       1.00
       C70          C  0.6169000  0.3564000  0.0000000    0.00000       Uiso       1.00
       C71          C  0.6033000  0.4020000  0.0000000    0.00000       Uiso       1.00
       C72          C  0.5583000  0.3445000  0.0000000    0.00000       Uiso       1.00
       C73          C  0.6269000  0.3912000  0.0000000    0.00000       Uiso       1.00
       C74          C  0.5817000  0.3334000  0.0000000    0.00000       Uiso       1.00
       C75          C  0.4098000  0.9798999  0.0000000    0.00000       Uiso       1.00
       C76          C  0.3728000  0.9537000  0.0000000    0.00000       Uiso       1.00
       O77          O  0.4859000  0.9147000  0.0000000    0.00000       Uiso       1.00
       O78          O  0.4288000  0.9629999  0.0000000    0.00000       Uiso       1.00
       N79          N  0.4329000  0.9033000  0.0000000    0.00000       Uiso       1.00
       N80          N  0.4214000  0.8685000  0.0000000    0.00000       Uiso       1.00
       H81          H  0.3880000  0.5713000  0.0000000    0.00000       Uiso       1.00
       H82          H  0.3473000  0.5891000  0.0000000    0.00000       Uiso       1.00
       H83          H  0.4684000  0.6741000  0.0000000    0.00000       Uiso       1.00
       H84          H  0.4289000  0.6934000  0.0000000    0.00000       Uiso       1.00
       H85          H  0.4829000  0.6290000  0.0000000    0.00000       Uiso       1.00
       H86          H  0.4957000  0.5849000  0.0000000    0.00000       Uiso       1.00
       H87          H  0.3142000  0.6064000  0.0000000    0.00000       Uiso       1.00
       H88          H  0.9700000  0.4381000  0.0000000    0.00000       Uiso       1.00
       H89          H  0.0340000  0.3912000  0.0000000    0.00000       Uiso       1.00
       C90          C  0.0167000  0.5347000  0.0000000    0.00000       Uiso       1.00
       C91          C  0.0361000  0.5185000  0.0000000    0.00000       Uiso       1.00
       C92          C  0.0740000  0.5408000  0.0000000    0.00000       Uiso       1.00
       C93          C  0.0187000  0.4829000  0.0000000    0.00000       Uiso       1.00
       C94          C  0.1539000  0.5436000  0.0000000    0.00000       Uiso       1.00
       C95          C  0.3224000  0.6324000  0.0000000    0.00000       Uiso       1.00
       C96          C  0.3574000  0.6555000  0.0000000    0.00000       Uiso       1.00
       C97          C  0.6213000  0.1901000  0.0000000    0.00000       Uiso       1.00
       C98          C  0.6436000  0.2605000  0.0000000    0.00000       Uiso       1.00
       C99          C  0.5980000  0.2013000  0.0000000    0.00000       Uiso       1.00
      C100          C  0.6555000  0.2138000  0.0000000    0.00000       Uiso       1.00
      C101          C  0.6088000  0.2357000  0.0000000    0.00000       Uiso       1.00
      C102          C  0.6666000  0.2483000  0.0000000    0.00000       Uiso       1.00
      C103          C  0.0201000  0.4299000  0.0000000    0.00000       Uiso       1.00
      C104          C  0.0463000  0.4191000  0.0000000    0.00000       Uiso       1.00
      O105          O  0.0853000  0.5712000  0.0000000    0.00000       Uiso       1.00
      O106          O  0.0370000  0.4658000  0.0000000    0.00000       Uiso       1.00
      N107          N  0.0967000  0.5296000  0.0000000    0.00000       Uiso       1.00
      N108          N  0.1315000  0.5529000  0.0000000    0.00000       Uiso       1.00
      H109          H  0.5713000  0.1833000  0.0000000    0.00000       Uiso       1.00
      H110          H  0.5891000  0.2418000  0.0000000    0.00000       Uiso       1.00
      H111          H  0.6741000  0.2057000  0.0000000    0.00000       Uiso       1.00
      H112          H  0.6934000  0.2645000  0.0000000    0.00000       Uiso       1.00
      H113          H  0.6290000  0.1461000  0.0000000    0.00000       Uiso       1.00
      H114          H  0.5849000  0.0892000  0.0000000    0.00000       Uiso       1.00
      H115          H  0.6064000  0.2922000  0.0000000    0.00000       Uiso       1.00
      H116          H  0.4381000  0.4681000  0.0000000    0.00000       Uiso       1.00
      H117          H  0.3912000  0.3572000  0.0000000    0.00000       Uiso       1.00
      C118          C  0.5347000  0.5180000  0.0000000    0.00000       Uiso       1.00
      C119          C  0.5185000  0.4824000  0.0000000    0.00000       Uiso       1.00
      C120          C  0.5408000  0.4668000  0.0000000    0.00000       Uiso       1.00
      C121          C  0.4829000  0.4642000  0.0000000    0.00000       Uiso       1.00
      C122          C  0.5436000  0.3897000  0.0000000    0.00000       Uiso       1.00
      C123          C  0.6324000  0.3100000  0.0000000    0.00000       Uiso       1.00
      C124          C  0.6555000  0.2981000  0.0000000    0.00000       Uiso       1.00
      C125          C  0.1901000  0.5688000  0.0000000    0.00000       Uiso       1.00
      C126          C  0.2605000  0.6169000  0.0000000    0.00000       Uiso       1.00
      C127          C  0.2013000  0.6033000  0.0000000    0.00000       Uiso       1.00
      C128          C  0.2138000  0.5583000  0.0000000    0.00000       Uiso       1.00
      C129          C  0.2357000  0.6269000  0.0000000    0.00000       Uiso       1.00
      C130          C  0.2483000  0.5817000  0.0000000    0.00000       Uiso       1.00
      C131          C  0.4299000  0.4098000  0.0000000    0.00000       Uiso       1.00
      C132          C  0.4191000  0.3728000  0.0000000    0.00000       Uiso       1.00
      O133          O  0.5712000  0.4859000  0.0000000    0.00000       Uiso       1.00
      O134          O  0.4658000  0.4288000  0.0000000    0.00000       Uiso       1.00
      N135          N  0.5296000  0.4329000  0.0000000    0.00000       Uiso       1.00
      N136          N  0.5529000  0.4214000  0.0000000    0.00000       Uiso       1.00
      H137          H  0.8167000  0.3880000  0.0000000    0.00000       Uiso       1.00
      H138          H  0.7582000  0.3473000  0.0000000    0.00000       Uiso       1.00
      H139          H  0.7943000  0.4684000  0.0000000    0.00000       Uiso       1.00
      H140          H  0.7355000  0.4289000  0.0000000    0.00000       Uiso       1.00
      H141          H  0.8539000  0.4829000  0.0000000    0.00000       Uiso       1.00
      H142          H  0.9108000  0.4957000  0.0000000    0.00000       Uiso       1.00
      H143          H  0.7078000  0.3142000  0.0000000    0.00000       Uiso       1.00
      H144          H  0.5319000  0.9700000  0.0000000    0.00000       Uiso       1.00
      H145          H  0.6428000  0.0340000  0.0000000    0.00000       Uiso       1.00
      C146          C  0.4820000  0.0167000  0.0000000    0.00000       Uiso       1.00
      C147          C  0.5176000  0.0361000  0.0000000    0.00000       Uiso       1.00
      C148          C  0.5332000  0.0740000  0.0000000    0.00000       Uiso       1.00
      C149          C  0.5358000  0.0187000  0.0000000    0.00000       Uiso       1.00
      C150          C  0.6103000  0.1539000  0.0000000    0.00000       Uiso       1.00
      C151          C  0.6900000  0.3224000  0.0000000    0.00000       Uiso       1.00
      C152          C  0.7019000  0.3574000  0.0000000    0.00000       Uiso       1.00
      C153          C  0.4312000  0.6213000  0.0000000    0.00000       Uiso       1.00
      C154          C  0.3831000  0.6436000  0.0000000    0.00000       Uiso       1.00
      C155          C  0.3967000  0.5980000  0.0000000    0.00000       Uiso       1.00
      C156          C  0.4417000  0.6555000  0.0000000    0.00000       Uiso       1.00
      C157          C  0.3731000  0.6088000  0.0000000    0.00000       Uiso       1.00
      C158          C  0.4183000  0.6666000  0.0000000    0.00000       Uiso       1.00
      C159          C  0.5902000  0.0201000  0.0000000    0.00000       Uiso       1.00
      C160          C  0.6272000  0.0463000  0.0000000    0.00000       Uiso       1.00
      O161          O  0.5141000  0.0853000  0.0000000    0.00000       Uiso       1.00
      O162          O  0.5712000  0.0370000  0.0000000    0.00000       Uiso       1.00
      N163          N  0.5671000  0.0967000  0.0000000    0.00000       Uiso       1.00
      N164          N  0.5786000  0.1315000  0.0000000    0.00000       Uiso       1.00
      H165          H  0.6120000  0.4287000  0.0000000    0.00000       Uiso       1.00
      H166          H  0.6527000  0.4109000  0.0000000    0.00000       Uiso       1.00
      H167          H  0.5316000  0.3259000  0.0000000    0.00000       Uiso       1.00
      H168          H  0.5711000  0.3066000  0.0000000    0.00000       Uiso       1.00
      H169          H  0.5171000  0.3710000  0.0000000    0.00000       Uiso       1.00
      H170          H  0.5043000  0.4151000  0.0000000    0.00000       Uiso       1.00
      H171          H  0.6858000  0.3936000  0.0000000    0.00000       Uiso       1.00
      H172          H  0.0300000  0.5619000  0.0000000    0.00000       Uiso       1.00
      H173          H  0.9660000  0.6088000  0.0000000    0.00000       Uiso       1.00
      C174          C  0.9833000  0.4653000  0.0000000    0.00000       Uiso       1.00
      C175          C  0.9639000  0.4815000  0.0000000    0.00000       Uiso       1.00
      C176          C  0.9260000  0.4592000  0.0000000    0.00000       Uiso       1.00
      C177          C  0.9813001  0.5171000  0.0000000    0.00000       Uiso       1.00
      C178          C  0.8461000  0.4564000  0.0000000    0.00000       Uiso       1.00
      C179          C  0.6776000  0.3676000  0.0000000    0.00000       Uiso       1.00
      C180          C  0.6426000  0.3445000  0.0000000    0.00000       Uiso       1.00
      C181          C  0.3787000  0.8099000  0.0000000    0.00000       Uiso       1.00
      C182          C  0.3564000  0.7395000  0.0000000    0.00000       Uiso       1.00
      C183          C  0.4020000  0.7987000  0.0000000    0.00000       Uiso       1.00
      C184          C  0.3445000  0.7862000  0.0000000    0.00000       Uiso       1.00
      C185          C  0.3912000  0.7643000  0.0000000    0.00000       Uiso       1.00
      C186          C  0.3334000  0.7517000  0.0000000    0.00000       Uiso       1.00
      C187          C  0.9799000  0.5701000  0.0000000    0.00000       Uiso       1.00
      C188          C  0.9537000  0.5809000  0.0000000    0.00000       Uiso       1.00
      O189          O  0.9147000  0.4288000  0.0000000    0.00000       Uiso       1.00
      O190          O  0.9630001  0.5342000  0.0000000    0.00000       Uiso       1.00
      N191          N  0.9033000  0.4704000  0.0000000    0.00000       Uiso       1.00
      N192          N  0.8685000  0.4471000  0.0000000    0.00000       Uiso       1.00
