data_COF-5
_audit_creation_date              0000-00-00
_audit_creation_method            'LanYouShi'
_symmetry_space_group_name_H-M    'P1'
_cell_length_a                    29.7010002
_cell_length_b                    29.7010002
_cell_length_c                    3.4602001
_cell_angle_alpha                 90.0000000
_cell_angle_beta                  90.0000000
_cell_angle_gamma                 120.0000000
loop_
_atom_site_label
_atom_site_type_symbol
_atom_site_fract_x
_atom_site_fract_y
_atom_site_fract_z
_atom_site_U_iso_or_equiv
_atom_site_adp_type
_atom_site_occupancy
        B1          B  0.1082010  0.5514160  0.5000000    0.00000       Uiso       1.00
        B2          B  0.4378460  0.5514160  0.5000000    0.00000       Uiso       1.00
        B3          B  0.4378460  0.8810610  0.5000000    0.00000       Uiso       1.00
        B4          B  0.8810610  0.4378460  0.5000000    0.00000       Uiso       1.00
        B5          B  0.5514160  0.4378460  0.5000000    0.00000       Uiso       1.00
        B6          B  0.5514160  0.1082010  0.5000000    0.00000       Uiso       1.00
        O7          O  0.6076810  0.1389210  0.5000000    0.00000       Uiso       1.00
        C8          C  0.4677510  0.0215110  0.5000000    0.00000       Uiso       1.00
        C9          C  0.6141310  0.1879110  0.5000000    0.00000       Uiso       1.00
       C10          C  0.6610410  0.2335910  0.5000000    0.00000       Uiso       1.00
       C11          C  0.6615010  0.2808410  0.5000000    0.00000       Uiso       1.00
       O12          O  0.8503410  0.4633910  0.5000000    0.00000       Uiso       1.00
       C13          C  0.9677510  0.4408710  0.5000000    0.00000       Uiso       1.00
       C14          C  0.8013510  0.4208510  0.5000000    0.00000       Uiso       1.00
       C15          C  0.7556710  0.4220810  0.5000000    0.00000       Uiso       1.00
       C16          C  0.7084210  0.3752910  0.5000000    0.00000       Uiso       1.00
       O17          O  0.5258710  0.3815810  0.5000000    0.00000       Uiso       1.00
       C18          C  0.5483910  0.5215110  0.5000000    0.00000       Uiso       1.00
       C19          C  0.5684110  0.3751310  0.5000000    0.00000       Uiso       1.00
       C20          C  0.5671810  0.3282210  0.5000000    0.00000       Uiso       1.00
       C21          C  0.6139710  0.3277610  0.5000000    0.00000       Uiso       1.00
       O22          O  0.3815810  0.8503411  0.5000000    0.00000       Uiso       1.00
       C23          C  0.5215110  0.9677510  0.5000000    0.00000       Uiso       1.00
       C24          C  0.3751310  0.8013510  0.5000000    0.00000       Uiso       1.00
       C25          C  0.3282210  0.7556710  0.5000000    0.00000       Uiso       1.00
       C26          C  0.3277610  0.7084210  0.5000000    0.00000       Uiso       1.00
       O27          O  0.1389210  0.5258710  0.5000000    0.00000       Uiso       1.00
       C28          C  0.0215110  0.5483910  0.5000000    0.00000       Uiso       1.00
       C29          C  0.1879110  0.5684110  0.5000000    0.00000       Uiso       1.00
       C30          C  0.2335910  0.5671810  0.5000000    0.00000       Uiso       1.00
       C31          C  0.2808410  0.6139710  0.5000000    0.00000       Uiso       1.00
       O32          O  0.4633910  0.6076810  0.5000000    0.00000       Uiso       1.00
       C33          C  0.4408710  0.4677510  0.5000000    0.00000       Uiso       1.00
       C34          C  0.4208510  0.6141310  0.5000000    0.00000       Uiso       1.00
       C35          C  0.4220810  0.6610411  0.5000000    0.00000       Uiso       1.00
       C36          C  0.3752910  0.6615009  0.5000000    0.00000       Uiso       1.00
       O37          O  0.1389210  0.6076810  0.5000000    0.00000       Uiso       1.00
       C38          C  0.0215110  0.4677510  0.5000000    0.00000       Uiso       1.00
       C39          C  0.1879110  0.6141310  0.5000000    0.00000       Uiso       1.00
       C40          C  0.2335910  0.6610411  0.5000000    0.00000       Uiso       1.00
       C41          C  0.2808410  0.6615009  0.5000000    0.00000       Uiso       1.00
       O42          O  0.4633910  0.8503411  0.5000000    0.00000       Uiso       1.00
       C43          C  0.4408710  0.9677510  0.5000000    0.00000       Uiso       1.00
       C44          C  0.4208510  0.8013510  0.5000000    0.00000       Uiso       1.00
       C45          C  0.4220810  0.7556710  0.5000000    0.00000       Uiso       1.00
       C46          C  0.3752910  0.7084210  0.5000000    0.00000       Uiso       1.00
       O47          O  0.3815810  0.5258710  0.5000000    0.00000       Uiso       1.00
       C48          C  0.5215110  0.5483910  0.5000000    0.00000       Uiso       1.00
       C49          C  0.3751310  0.5684110  0.5000000    0.00000       Uiso       1.00
       C50          C  0.3282210  0.5671810  0.5000000    0.00000       Uiso       1.00
       C51          C  0.3277610  0.6139710  0.5000000    0.00000       Uiso       1.00
       O52          O  0.8503410  0.3815810  0.5000000    0.00000       Uiso       1.00
       C53          C  0.9677510  0.5215110  0.5000000    0.00000       Uiso       1.00
       C54          C  0.8013510  0.3751310  0.5000000    0.00000       Uiso       1.00
       C55          C  0.7556710  0.3282210  0.5000000    0.00000       Uiso       1.00
       C56          C  0.7084210  0.3277610  0.5000000    0.00000       Uiso       1.00
       O57          O  0.5258710  0.1389210  0.5000000    0.00000       Uiso       1.00
       C58          C  0.5483910  0.0215110  0.5000000    0.00000       Uiso       1.00
       C59          C  0.5684110  0.1879110  0.5000000    0.00000       Uiso       1.00
       C60          C  0.5671810  0.2335910  0.5000000    0.00000       Uiso       1.00
       C61          C  0.6139710  0.2808410  0.5000000    0.00000       Uiso       1.00
       O62          O  0.6076810  0.4633910  0.5000000    0.00000       Uiso       1.00
       C63          C  0.4677510  0.4408710  0.5000000    0.00000       Uiso       1.00
       C64          C  0.6141310  0.4208510  0.5000000    0.00000       Uiso       1.00
       C65          C  0.6610410  0.4220810  0.5000000    0.00000       Uiso       1.00
       C66          C  0.6615010  0.3752910  0.5000000    0.00000       Uiso       1.00
       C67          C  0.9408010  0.4677160  0.5000000    0.00000       Uiso       1.00
       C68          C  0.5215460  0.4677160  0.5000000    0.00000       Uiso       1.00
       C69          C  0.5215460  0.0484610  0.5000000    0.00000       Uiso       1.00
       C70          C  0.0484610  0.5215460  0.5000000    0.00000       Uiso       1.00
       C71          C  0.4677160  0.5215460  0.5000000    0.00000       Uiso       1.00
       C72          C  0.4677160  0.9408010  0.5000000    0.00000       Uiso       1.00
       H73          H  0.4473400  0.0418430  0.5000000    0.00000       Uiso       1.00
       H74          H  0.6958490  0.2326540  0.5000000    0.00000       Uiso       1.00
       H75          H  0.9474190  0.4001280  0.5000000    0.00000       Uiso       1.00
       H76          H  0.7566090  0.4578260  0.5000000    0.00000       Uiso       1.00
       H77          H  0.5891350  0.5419230  0.5000000    0.00000       Uiso       1.00
       H78          H  0.5314370  0.2934140  0.5000000    0.00000       Uiso       1.00
       H79          H  0.5419230  0.9474190  0.5000000    0.00000       Uiso       1.00
       H80          H  0.2934140  0.7566090  0.5000000    0.00000       Uiso       1.00
       H81          H  0.0418430  0.5891350  0.5000000    0.00000       Uiso       1.00
       H82          H  0.2326540  0.5314370  0.5000000    0.00000       Uiso       1.00
       H83          H  0.4001280  0.4473400  0.5000000    0.00000       Uiso       1.00
       H84          H  0.4578260  0.6958480  0.5000000    0.00000       Uiso       1.00
       H85          H  0.0418430  0.4473400  0.5000000    0.00000       Uiso       1.00
       H86          H  0.2326540  0.6958480  0.5000000    0.00000       Uiso       1.00
       H87          H  0.4001280  0.9474190  0.5000000    0.00000       Uiso       1.00
       H88          H  0.4578260  0.7566090  0.5000000    0.00000       Uiso       1.00
       H89          H  0.5419230  0.5891350  0.5000000    0.00000       Uiso       1.00
       H90          H  0.2934140  0.5314370  0.5000000    0.00000       Uiso       1.00
       H91          H  0.9474190  0.5419230  0.5000000    0.00000       Uiso       1.00
       H92          H  0.7566090  0.2934140  0.5000000    0.00000       Uiso       1.00
       H93          H  0.5891350  0.0418430  0.5000000    0.00000       Uiso       1.00
       H94          H  0.5314370  0.2326540  0.5000000    0.00000       Uiso       1.00
       H95          H  0.4473400  0.4001280  0.5000000    0.00000       Uiso       1.00
       H96          H  0.6958480  0.4578260  0.5000000    0.00000       Uiso       1.00
