data_COF-505
_audit_creation_date              0000-00-00
_audit_creation_method            'LanYouShi'
_symmetry_space_group_name_H-M    'P1'
_cell_length_a                    18.6830997
_cell_length_b                    21.4470997
_cell_length_c                    30.2458992
_cell_angle_alpha                 90.0000000
_cell_angle_beta                  90.0000000
_cell_angle_gamma                 90.0000000
loop_
_atom_site_label
_atom_site_type_symbol
_atom_site_fract_x
_atom_site_fract_y
_atom_site_fract_z
_atom_site_U_iso_or_equiv
_atom_site_adp_type
_atom_site_occupancy
        B1          B  0.7815300  0.2307000  0.0417500    0.00000       Uiso       1.00
        C2          C  0.9645400  0.0778000  0.1949800    0.00000       Uiso       1.00
        C3          C  0.9633101  0.1132300  0.2341100    0.00000       Uiso       1.00
        C4          C  0.0259700  0.1282600  0.2560200    0.00000       Uiso       1.00
        C5          C  0.0915700  0.1115700  0.2379900    0.00000       Uiso       1.00
        C6          C  0.1541400  0.1397600  0.2537200    0.00000       Uiso       1.00
        C7          C  0.2193000  0.1294100  0.2327200    0.00000       Uiso       1.00
        C8          C  0.2240100  0.0874100  0.1975100    0.00000       Uiso       1.00
        C9          C  0.2881800  0.0808400  0.1742400    0.00000       Uiso       1.00
       C10          C  0.2900500  0.0463500  0.1352700    0.00000       Uiso       1.00
       C11          C  0.2290200  0.0139000  0.1208500    0.00000       Uiso       1.00
       C12          C  0.1625400  0.0552200  0.1827600    0.00000       Uiso       1.00
       C13          C  0.0937300  0.0702200  0.2015800    0.00000       Uiso       1.00
       C14          C  0.6869800  0.0741900  0.1023200    0.00000       Uiso       1.00
       C15          C  0.2358500  0.9861700  0.0756700    0.00000       Uiso       1.00
       C16          C  0.2284700  0.9219300  0.0676300    0.00000       Uiso       1.00
       C17          C  0.2287800  0.8976300  0.0237800    0.00000       Uiso       1.00
       C18          C  0.2371000  0.9360601  0.9864300    0.00000       Uiso       1.00
       C19          C  0.2466300  0.9998200  0.9948000    0.00000       Uiso       1.00
       C20          C  0.2480400  0.0238300  0.0381800    0.00000       Uiso       1.00
       C21          C  0.2217100  0.9102700  0.9405700    0.00000       Uiso       1.00
       C22          C  0.0523200  0.8477501  0.1374800    0.00000       Uiso       1.00
       C23          C  0.0687700  0.7939400  0.1136100    0.00000       Uiso       1.00
       C24          C  0.0803300  0.7978800  0.0690200    0.00000       Uiso       1.00
       C25          C  0.0767600  0.8538600  0.0488200    0.00000       Uiso       1.00
       C26          C  0.0787300  0.8568500  0.0032000    0.00000       Uiso       1.00
       C27          C  0.0760900  0.9140801  0.9826700    0.00000       Uiso       1.00
       C28          C  0.0766100  0.9697900  0.0068800    0.00000       Uiso       1.00
       C29          C  0.0898700  0.0267700  0.9865500    0.00000       Uiso       1.00
       C30          C  0.1054600  0.0791900  0.0120100    0.00000       Uiso       1.00
       C31          C  0.0962800  0.0775800  0.0577600    0.00000       Uiso       1.00
       C32          C  0.0673200  0.9682001  0.0527700    0.00000       Uiso       1.00
       C33          C  0.0652000  0.9084601  0.0743500    0.00000       Uiso       1.00
       C34          C  0.8918000  0.7870500  0.2876100    0.00000       Uiso       1.00
       C35          C  0.1282600  0.3111900  0.1545000    0.00000       Uiso       1.00
      Cu36         Cu  0.0725000  0.9951900  0.1344900    0.00000       Uiso       1.00
       F37          F  0.7991300  0.2659100  0.0036800    0.00000       Uiso       1.00
       F38          F  0.7462900  0.2686000  0.0733800    0.00000       Uiso       1.00
       F39          F  0.7364000  0.1805000  0.0294100    0.00000       Uiso       1.00
       F40          F  0.8452900  0.2077700  0.0605700    0.00000       Uiso       1.00
       N41          N  0.0303000  0.0513800  0.1818900    0.00000       Uiso       1.00
       N42          N  0.1685600  0.0161100  0.1472000    0.00000       Uiso       1.00
       N43          N  0.0635200  0.9062400  0.1185000    0.00000       Uiso       1.00
       N44          N  0.0697500  0.0231800  0.0759400    0.00000       Uiso       1.00
       N45          N  0.6547600  0.0203400  0.1007800    0.00000       Uiso       1.00
       N46          N  0.2288100  0.9425800  0.9039900    0.00000       Uiso       1.00
       N47          N  0.9231300  0.7813600  0.3257300    0.00000       Uiso       1.00
       N48          N  0.0708900  0.3460900  0.1530700    0.00000       Uiso       1.00
       F49          F  0.4915900  0.6164200  0.5382300    0.00000       Uiso       1.00
       F50          F  0.4389100  0.6914300  0.4934600    0.00000       Uiso       1.00
       F51          F  0.0593800  0.2302000  0.0124600    0.00000       Uiso       1.00
       F52          F -0.0192200  0.1560600  0.0366300    0.00000       Uiso       1.00
       C53          C  0.9802499  0.8229200  0.8241100    0.00000       Uiso       1.00
       C54          C  0.9486800  0.8069800  0.7843300    0.00000       Uiso       1.00
       C55          C  0.9902499  0.7849800  0.7495600    0.00000       Uiso       1.00
       C56          C  0.0646900  0.7812300  0.7533000    0.00000       Uiso       1.00
       C57          C  0.0968100  0.7952800  0.7936000    0.00000       Uiso       1.00
       C58          C  0.0545400  0.8176801  0.8285700    0.00000       Uiso       1.00
       C59          C  0.3714900  0.4910200  0.5630800    0.00000       Uiso       1.00
       C60          C  0.3788200  0.4263400  0.5623700    0.00000       Uiso       1.00
       C61          C  0.3966100  0.3940000  0.5238700    0.00000       Uiso       1.00
       C62          C  0.4062900  0.4238800  0.4849600    0.00000       Uiso       1.00
       C63          C  0.4060500  0.4912100  0.4845500    0.00000       Uiso       1.00
       C64          C  0.3855300  0.5234900  0.5232800    0.00000       Uiso       1.00
       C65          C  0.4105300  0.3854200  0.4437100    0.00000       Uiso       1.00
       C66          C  0.3701300  0.4024000  0.4067900    0.00000       Uiso       1.00
       C67          C  0.3616100  0.3624900  0.3702600    0.00000       Uiso       1.00
       C68          C  0.4024200  0.3076900  0.3675400    0.00000       Uiso       1.00
       C69          C  0.4424200  0.2904100  0.4044500    0.00000       Uiso       1.00
       C70          C  0.4461300  0.3285800  0.4416100    0.00000       Uiso       1.00
       C71          C  0.9536100  0.4003000  0.8169700    0.00000       Uiso       1.00
       C72          C  0.9314601  0.3990200  0.7740800    0.00000       Uiso       1.00
       C73          C  0.9804500  0.4140800  0.7402300    0.00000       Uiso       1.00
       C74          C  0.0521500  0.4285200  0.7483100    0.00000       Uiso       1.00
       C75          C  0.0719100  0.4356400  0.7927399    0.00000       Uiso       1.00
       C76          C  0.0227400  0.4200200  0.8264600    0.00000       Uiso       1.00
       C77          C  0.0968600  0.4360600  0.7134100    0.00000       Uiso       1.00
       C78          C  0.0719900  0.4441300  0.6706300    0.00000       Uiso       1.00
       C79          C  0.1150800  0.4443400  0.6338500    0.00000       Uiso       1.00
       C80          C  0.1872300  0.4310800  0.6358800    0.00000       Uiso       1.00
       C81          C  0.2165400  0.4222200  0.6787000    0.00000       Uiso       1.00
       C82          C  0.1716600  0.4241200  0.7172800    0.00000       Uiso       1.00
       C83          C  0.1149100  0.1345800  0.0847600    0.00000       Uiso       1.00
       C84          C  0.0689700  0.1517200  0.1182400    0.00000       Uiso       1.00
       C85          C  0.0757100  0.2067700  0.1415000    0.00000       Uiso       1.00
       C86          C  0.1284400  0.2501800  0.1309900    0.00000       Uiso       1.00
       C87          C  0.1783200  0.2339200  0.0980400    0.00000       Uiso       1.00
       C88          C  0.1712300  0.1766800  0.0748100    0.00000       Uiso       1.00
       C89          C  0.7548700  0.0801700  0.1281200    0.00000       Uiso       1.00
       C90          C  0.7607200  0.0663100  0.1731400    0.00000       Uiso       1.00
       C91          C  0.8283300  0.0665600  0.1941900    0.00000       Uiso       1.00
       C92          C  0.8930100  0.0760200  0.1703500    0.00000       Uiso       1.00
       C93          C  0.8854700  0.0890600  0.1250200    0.00000       Uiso       1.00
       C94          C  0.8179500  0.0921800  0.1049200    0.00000       Uiso       1.00
       H95          H  0.9101200  0.1300100  0.2482300    0.00000       Uiso       1.00
       H96          H  0.0237200  0.1543200  0.2888400    0.00000       Uiso       1.00
       H97          H  0.1519200  0.1714600  0.2839500    0.00000       Uiso       1.00
       H98          H  0.2692700  0.1552500  0.2442000    0.00000       Uiso       1.00
       H99          H  0.3391200  0.1037300  0.1871600    0.00000       Uiso       1.00
      H100          H  0.3412900  0.0443200  0.1148500    0.00000       Uiso       1.00
      H101          H  0.6633400  0.1159400  0.0841300    0.00000       Uiso       1.00
      H102          H  0.2220900  0.8881800  0.0964800    0.00000       Uiso       1.00
      H103          H  0.2221300  0.8454200  0.0180600    0.00000       Uiso       1.00
      H104          H  0.2534900  0.0337700  0.9661100    0.00000       Uiso       1.00
      H105          H  0.2595600  0.0757000  0.0423600    0.00000       Uiso       1.00
      H106          H  0.2030000  0.8597199  0.9390900    0.00000       Uiso       1.00
      H107          H  0.0724900  0.7470900  0.1312600    0.00000       Uiso       1.00
      H108          H  0.0928900  0.7540200  0.0491900    0.00000       Uiso       1.00
      H109          H  0.0825200  0.8121700  0.9829200    0.00000       Uiso       1.00
      H110          H  0.0733900  0.9169600  0.9450700    0.00000       Uiso       1.00
      H111          H  0.0880000  0.0306800  0.9489800    0.00000       Uiso       1.00
      H112          H  0.1257800  0.1235400  0.9954600    0.00000       Uiso       1.00
      H113          H  0.8317900  0.7963799  0.2859000    0.00000       Uiso       1.00
      H114          H  0.1773900  0.3275900  0.1736000    0.00000       Uiso       1.00
      H115          H  0.8883300  0.8118700  0.7799600    0.00000       Uiso       1.00
      H116          H  0.9637001  0.7696700  0.7174100    0.00000       Uiso       1.00
      H117          H  0.1569200  0.7885800  0.7980100    0.00000       Uiso       1.00
      H118          H  0.0815100  0.8316699  0.8608900    0.00000       Uiso       1.00
      H119          H  0.3702200  0.3982000  0.5939000    0.00000       Uiso       1.00
      H120          H  0.4033100  0.3411800  0.5247700    0.00000       Uiso       1.00
      H121          H  0.4222300  0.5174500  0.4533300    0.00000       Uiso       1.00
      H122          H  0.3803600  0.5764300  0.5221500    0.00000       Uiso       1.00
      H123          H  0.3428100  0.4499000  0.4056200    0.00000       Uiso       1.00
      H124          H  0.3217200  0.3747300  0.3430900    0.00000       Uiso       1.00
      H125          H  0.4728200  0.2443200  0.4045500    0.00000       Uiso       1.00
      H126          H  0.4795700  0.3120100  0.4708600    0.00000       Uiso       1.00
      H127          H  0.8738600  0.3858700  0.7658400    0.00000       Uiso       1.00
      H128          H  0.9620900  0.4148500  0.7042900    0.00000       Uiso       1.00
      H129          H  0.1274100  0.4539600  0.8015000    0.00000       Uiso       1.00
      H130          H  0.0411800  0.4239700  0.8622800    0.00000       Uiso       1.00
      H131          H  0.0123800  0.4511500  0.6643300    0.00000       Uiso       1.00
      H132          H  0.0914500  0.4557700  0.6000600    0.00000       Uiso       1.00
      H133          H  0.2763600  0.4134700  0.6828200    0.00000       Uiso       1.00
      H134          H  0.1964600  0.4159600  0.7512300    0.00000       Uiso       1.00
      H135          H  0.0227300  0.1198200  0.1278800    0.00000       Uiso       1.00
      H136          H  0.0376400  0.2174500  0.1699700    0.00000       Uiso       1.00
      H137          H  0.2245200  0.2667200  0.0899600    0.00000       Uiso       1.00
      H138          H  0.2116000  0.1647800  0.0478300    0.00000       Uiso       1.00
      H139          H  0.7107700  0.0546900  0.1931700    0.00000       Uiso       1.00
      H140          H  0.8321500  0.0590100  0.2314200    0.00000       Uiso       1.00
      H141          H  0.9349400  0.0973700  0.1037500    0.00000       Uiso       1.00
      H142          H  0.8156200  0.1050300  0.0683700    0.00000       Uiso       1.00
      B143          B  0.2815300  0.7307000  0.0417500    0.00000       Uiso       1.00
      C144          C  0.4645400  0.5778000  0.1949800    0.00000       Uiso       1.00
      C145          C  0.4633100  0.6132300  0.2341100    0.00000       Uiso       1.00
      C146          C  0.5259700  0.6282600  0.2560200    0.00000       Uiso       1.00
      C147          C  0.5915700  0.6115700  0.2379900    0.00000       Uiso       1.00
      C148          C  0.6541400  0.6397600  0.2537200    0.00000       Uiso       1.00
      C149          C  0.7193000  0.6294100  0.2327200    0.00000       Uiso       1.00
      C150          C  0.7240100  0.5874100  0.1975100    0.00000       Uiso       1.00
      C151          C  0.7881800  0.5808400  0.1742400    0.00000       Uiso       1.00
      C152          C  0.7900500  0.5463500  0.1352700    0.00000       Uiso       1.00
      C153          C  0.7290200  0.5139000  0.1208500    0.00000       Uiso       1.00
      C154          C  0.6625400  0.5552200  0.1827600    0.00000       Uiso       1.00
      C155          C  0.5937300  0.5702200  0.2015800    0.00000       Uiso       1.00
      C156          C  0.1869800  0.5741900  0.1023200    0.00000       Uiso       1.00
      C157          C  0.7358500  0.4861700  0.0756700    0.00000       Uiso       1.00
      C158          C  0.7284700  0.4219300  0.0676300    0.00000       Uiso       1.00
      C159          C  0.7287800  0.3976300  0.0237800    0.00000       Uiso       1.00
      C160          C  0.7371000  0.4360600  0.9864300    0.00000       Uiso       1.00
      C161          C  0.7466300  0.4998200  0.9948000    0.00000       Uiso       1.00
      C162          C  0.7480400  0.5238300  0.0381800    0.00000       Uiso       1.00
      C163          C  0.7217100  0.4102700  0.9405700    0.00000       Uiso       1.00
      C164          C  0.5523200  0.3477500  0.1374800    0.00000       Uiso       1.00
      C165          C  0.5687700  0.2939400  0.1136100    0.00000       Uiso       1.00
      C166          C  0.5803300  0.2978800  0.0690200    0.00000       Uiso       1.00
      C167          C  0.5767600  0.3538600  0.0488200    0.00000       Uiso       1.00
      C168          C  0.5787300  0.3568500  0.0032000    0.00000       Uiso       1.00
      C169          C  0.5760900  0.4140800  0.9826700    0.00000       Uiso       1.00
      C170          C  0.5766100  0.4697900  0.0068800    0.00000       Uiso       1.00
      C171          C  0.5898700  0.5267700  0.9865500    0.00000       Uiso       1.00
      C172          C  0.6054600  0.5791900  0.0120100    0.00000       Uiso       1.00
      C173          C  0.5962800  0.5775800  0.0577600    0.00000       Uiso       1.00
      C174          C  0.5673200  0.4682000  0.0527700    0.00000       Uiso       1.00
      C175          C  0.5652000  0.4084600  0.0743500    0.00000       Uiso       1.00
      C176          C  0.3918000  0.2870500  0.2876100    0.00000       Uiso       1.00
      C177          C  0.6282600  0.8111900  0.1545000    0.00000       Uiso       1.00
     Cu178         Cu  0.5725000  0.4951900  0.1344900    0.00000       Uiso       1.00
      F179          F  0.2991300  0.7659100  0.0036800    0.00000       Uiso       1.00
      F180          F  0.2462900  0.7686000  0.0733800    0.00000       Uiso       1.00
      F181          F  0.2364000  0.6805000  0.0294100    0.00000       Uiso       1.00
      F182          F  0.3452900  0.7077700  0.0605700    0.00000       Uiso       1.00
      N183          N  0.5303000  0.5513800  0.1818900    0.00000       Uiso       1.00
      N184          N  0.6685600  0.5161100  0.1472000    0.00000       Uiso       1.00
      N185          N  0.5635200  0.4062400  0.1185000    0.00000       Uiso       1.00
      N186          N  0.5697500  0.5231800  0.0759400    0.00000       Uiso       1.00
      N187          N  0.1547600  0.5203400  0.1007800    0.00000       Uiso       1.00
      N188          N  0.7288100  0.4425800  0.9039900    0.00000       Uiso       1.00
      N189          N  0.4231300  0.2813600  0.3257300    0.00000       Uiso       1.00
      N190          N  0.5708900  0.8460900  0.1530700    0.00000       Uiso       1.00
      F191          F -0.0084100  0.1164200  0.5382300    0.00000       Uiso       1.00
      F192          F -0.0610900  0.1914300  0.4934600    0.00000       Uiso       1.00
      F193          F  0.5593800  0.7302000  0.0124600    0.00000       Uiso       1.00
      F194          F  0.4807800  0.6560600  0.0366300    0.00000       Uiso       1.00
      C195          C  0.4802500  0.3229200  0.8241100    0.00000       Uiso       1.00
      C196          C  0.4486800  0.3069800  0.7843300    0.00000       Uiso       1.00
      C197          C  0.4902500  0.2849800  0.7495600    0.00000       Uiso       1.00
      C198          C  0.5646900  0.2812300  0.7533000    0.00000       Uiso       1.00
      C199          C  0.5968100  0.2952800  0.7936000    0.00000       Uiso       1.00
      C200          C  0.5545400  0.3176800  0.8285700    0.00000       Uiso       1.00
      C201          C  0.8714900  0.9910200  0.5630800    0.00000       Uiso       1.00
      C202          C  0.8788201  0.9263400  0.5623700    0.00000       Uiso       1.00
      C203          C  0.8966101  0.8939999  0.5238700    0.00000       Uiso       1.00
      C204          C  0.9062900  0.9238800  0.4849600    0.00000       Uiso       1.00
      C205          C  0.9060500  0.9912100  0.4845500    0.00000       Uiso       1.00
      C206          C  0.8855300  0.0234900  0.5232800    0.00000       Uiso       1.00
      C207          C  0.9105300  0.8854200  0.4437100    0.00000       Uiso       1.00
      C208          C  0.8701300  0.9024000  0.4067900    0.00000       Uiso       1.00
      C209          C  0.8616100  0.8624900  0.3702600    0.00000       Uiso       1.00
      C210          C  0.9024200  0.8076900  0.3675400    0.00000       Uiso       1.00
      C211          C  0.9424200  0.7904100  0.4044500    0.00000       Uiso       1.00
      C212          C  0.9461300  0.8285800  0.4416100    0.00000       Uiso       1.00
      C213          C  0.4536100  0.9003000  0.8169700    0.00000       Uiso       1.00
      C214          C  0.4314600  0.8990200  0.7740800    0.00000       Uiso       1.00
      C215          C  0.4804500  0.9140801  0.7402300    0.00000       Uiso       1.00
      C216          C  0.5521500  0.9285200  0.7483100    0.00000       Uiso       1.00
      C217          C  0.5719100  0.9356399  0.7927399    0.00000       Uiso       1.00
      C218          C  0.5227400  0.9200200  0.8264600    0.00000       Uiso       1.00
      C219          C  0.5968600  0.9360601  0.7134100    0.00000       Uiso       1.00
      C220          C  0.5719900  0.9441300  0.6706300    0.00000       Uiso       1.00
      C221          C  0.6150800  0.9443399  0.6338500    0.00000       Uiso       1.00
      C222          C  0.6872300  0.9310800  0.6358800    0.00000       Uiso       1.00
      C223          C  0.7165400  0.9222200  0.6787000    0.00000       Uiso       1.00
      C224          C  0.6716600  0.9241200  0.7172800    0.00000       Uiso       1.00
      C225          C  0.6149100  0.6345800  0.0847600    0.00000       Uiso       1.00
      C226          C  0.5689700  0.6517200  0.1182400    0.00000       Uiso       1.00
      C227          C  0.5757100  0.7067700  0.1415000    0.00000       Uiso       1.00
      C228          C  0.6284400  0.7501800  0.1309900    0.00000       Uiso       1.00
      C229          C  0.6783200  0.7339200  0.0980400    0.00000       Uiso       1.00
      C230          C  0.6712300  0.6766800  0.0748100    0.00000       Uiso       1.00
      C231          C  0.2548700  0.5801700  0.1281200    0.00000       Uiso       1.00
      C232          C  0.2607200  0.5663100  0.1731400    0.00000       Uiso       1.00
      C233          C  0.3283300  0.5665600  0.1941900    0.00000       Uiso       1.00
      C234          C  0.3930100  0.5760200  0.1703500    0.00000       Uiso       1.00
      C235          C  0.3854700  0.5890600  0.1250200    0.00000       Uiso       1.00
      C236          C  0.3179500  0.5921800  0.1049200    0.00000       Uiso       1.00
      H237          H  0.4101200  0.6300100  0.2482300    0.00000       Uiso       1.00
      H238          H  0.5237200  0.6543200  0.2888400    0.00000       Uiso       1.00
      H239          H  0.6519200  0.6714600  0.2839500    0.00000       Uiso       1.00
      H240          H  0.7692700  0.6552500  0.2442000    0.00000       Uiso       1.00
      H241          H  0.8391200  0.6037300  0.1871600    0.00000       Uiso       1.00
      H242          H  0.8412900  0.5443200  0.1148500    0.00000       Uiso       1.00
      H243          H  0.1633400  0.6159400  0.0841300    0.00000       Uiso       1.00
      H244          H  0.7220900  0.3881800  0.0964800    0.00000       Uiso       1.00
      H245          H  0.7221300  0.3454200  0.0180600    0.00000       Uiso       1.00
      H246          H  0.7534900  0.5337700  0.9661100    0.00000       Uiso       1.00
      H247          H  0.7595600  0.5757000  0.0423600    0.00000       Uiso       1.00
      H248          H  0.7030000  0.3597200  0.9390900    0.00000       Uiso       1.00
      H249          H  0.5724900  0.2470900  0.1312600    0.00000       Uiso       1.00
      H250          H  0.5928900  0.2540200  0.0491900    0.00000       Uiso       1.00
      H251          H  0.5825200  0.3121700  0.9829200    0.00000       Uiso       1.00
      H252          H  0.5733900  0.4169600  0.9450700    0.00000       Uiso       1.00
      H253          H  0.5880000  0.5306800  0.9489800    0.00000       Uiso       1.00
      H254          H  0.6257800  0.6235400  0.9954600    0.00000       Uiso       1.00
      H255          H  0.3317900  0.2963800  0.2859000    0.00000       Uiso       1.00
      H256          H  0.6773900  0.8275900  0.1736000    0.00000       Uiso       1.00
      H257          H  0.3883300  0.3118700  0.7799600    0.00000       Uiso       1.00
      H258          H  0.4637000  0.2696700  0.7174100    0.00000       Uiso       1.00
      H259          H  0.6569200  0.2885800  0.7980100    0.00000       Uiso       1.00
      H260          H  0.5815100  0.3316700  0.8608900    0.00000       Uiso       1.00
      H261          H  0.8702200  0.8982000  0.5939000    0.00000       Uiso       1.00
      H262          H  0.9033100  0.8411801  0.5247700    0.00000       Uiso       1.00
      H263          H  0.9222301  0.0174500  0.4533300    0.00000       Uiso       1.00
      H264          H  0.8803599  0.0764300  0.5221500    0.00000       Uiso       1.00
      H265          H  0.8428100  0.9498999  0.4056200    0.00000       Uiso       1.00
      H266          H  0.8217200  0.8747300  0.3430900    0.00000       Uiso       1.00
      H267          H  0.9728200  0.7443200  0.4045500    0.00000       Uiso       1.00
      H268          H  0.9795700  0.8120099  0.4708600    0.00000       Uiso       1.00
      H269          H  0.3738600  0.8858700  0.7658400    0.00000       Uiso       1.00
      H270          H  0.4620900  0.9148499  0.7042900    0.00000       Uiso       1.00
      H271          H  0.6274100  0.9539600  0.8015000    0.00000       Uiso       1.00
      H272          H  0.5411800  0.9239700  0.8622800    0.00000       Uiso       1.00
      H273          H  0.5123800  0.9511500  0.6643300    0.00000       Uiso       1.00
      H274          H  0.5914500  0.9557700  0.6000600    0.00000       Uiso       1.00
      H275          H  0.7763600  0.9134700  0.6828200    0.00000       Uiso       1.00
      H276          H  0.6964600  0.9159600  0.7512300    0.00000       Uiso       1.00
      H277          H  0.5227300  0.6198200  0.1278800    0.00000       Uiso       1.00
      H278          H  0.5376400  0.7174500  0.1699700    0.00000       Uiso       1.00
      H279          H  0.7245200  0.7667200  0.0899600    0.00000       Uiso       1.00
      H280          H  0.7116000  0.6647800  0.0478300    0.00000       Uiso       1.00
      H281          H  0.2107700  0.5546900  0.1931700    0.00000       Uiso       1.00
      H282          H  0.3321500  0.5590100  0.2314200    0.00000       Uiso       1.00
      H283          H  0.4349400  0.5973700  0.1037500    0.00000       Uiso       1.00
      H284          H  0.3156200  0.6050300  0.0683700    0.00000       Uiso       1.00
      B285          B  0.2184700  0.2307000  0.9582500    0.00000       Uiso       1.00
      C286          C  0.0354600  0.0778000  0.8050200    0.00000       Uiso       1.00
      C287          C  0.0366900  0.1132300  0.7658900    0.00000       Uiso       1.00
      C288          C  0.9740301  0.1282600  0.7439800    0.00000       Uiso       1.00
      C289          C  0.9084300  0.1115700  0.7620099    0.00000       Uiso       1.00
      C290          C  0.8458600  0.1397600  0.7462800    0.00000       Uiso       1.00
      C291          C  0.7807000  0.1294100  0.7672800    0.00000       Uiso       1.00
      C292          C  0.7759900  0.0874100  0.8024900    0.00000       Uiso       1.00
      C293          C  0.7118200  0.0808400  0.8257601    0.00000       Uiso       1.00
      C294          C  0.7099500  0.0463500  0.8647300    0.00000       Uiso       1.00
      C295          C  0.7709800  0.0139000  0.8791500    0.00000       Uiso       1.00
      C296          C  0.8374600  0.0552200  0.8172400    0.00000       Uiso       1.00
      C297          C  0.9062700  0.0702200  0.7984200    0.00000       Uiso       1.00
      C298          C  0.3130200  0.0741900  0.8976800    0.00000       Uiso       1.00
      C299          C  0.7641500  0.9861700  0.9243300    0.00000       Uiso       1.00
      C300          C  0.7715300  0.9219300  0.9323700    0.00000       Uiso       1.00
      C301          C  0.7712200  0.8976300  0.9762200    0.00000       Uiso       1.00
      C302          C  0.7629000  0.9360601  0.0135700    0.00000       Uiso       1.00
      C303          C  0.7533700  0.9998200  0.0052000    0.00000       Uiso       1.00
      C304          C  0.7519600  0.0238300  0.9618200    0.00000       Uiso       1.00
      C305          C  0.7782900  0.9102700  0.0594300    0.00000       Uiso       1.00
      C306          C  0.9476801  0.8477501  0.8625200    0.00000       Uiso       1.00
      C307          C  0.9312301  0.7939400  0.8863900    0.00000       Uiso       1.00
      C308          C  0.9196699  0.7978800  0.9309800    0.00000       Uiso       1.00
      C309          C  0.9232400  0.8538600  0.9511800    0.00000       Uiso       1.00
      C310          C  0.9212700  0.8568500  0.9968000    0.00000       Uiso       1.00
      C311          C  0.9239100  0.9140801  0.0173300    0.00000       Uiso       1.00
      C312          C  0.9233900  0.9697900  0.9931200    0.00000       Uiso       1.00
      C313          C  0.9101300  0.0267700  0.0134500    0.00000       Uiso       1.00
      C314          C  0.8945400  0.0791900  0.9879900    0.00000       Uiso       1.00
      C315          C  0.9037200  0.0775800  0.9422400    0.00000       Uiso       1.00
      C316          C  0.9326800  0.9682001  0.9472300    0.00000       Uiso       1.00
      C317          C  0.9348000  0.9084601  0.9256500    0.00000       Uiso       1.00
      C318          C  0.1082000  0.7870500  0.7123900    0.00000       Uiso       1.00
      C319          C  0.8717399  0.3111900  0.8455000    0.00000       Uiso       1.00
     Cu320         Cu  0.9275000  0.9951900  0.8655100    0.00000       Uiso       1.00
      F321          F  0.2008700  0.2659100  0.9963200    0.00000       Uiso       1.00
      F322          F  0.2537100  0.2686000  0.9266200    0.00000       Uiso       1.00
      F323          F  0.2636000  0.1805000  0.9705900    0.00000       Uiso       1.00
      F324          F  0.1547100  0.2077700  0.9394300    0.00000       Uiso       1.00
      N325          N  0.9696999  0.0513800  0.8181100    0.00000       Uiso       1.00
      N326          N  0.8314400  0.0161100  0.8528000    0.00000       Uiso       1.00
      N327          N  0.9364800  0.9062400  0.8815000    0.00000       Uiso       1.00
      N328          N  0.9302500  0.0231800  0.9240600    0.00000       Uiso       1.00
      N329          N  0.3452400  0.0203400  0.8992200    0.00000       Uiso       1.00
      N330          N  0.7711900  0.9425800  0.0960100    0.00000       Uiso       1.00
      N331          N  0.0768700  0.7813600  0.6742700    0.00000       Uiso       1.00
      N332          N  0.9291099  0.3460900  0.8469300    0.00000       Uiso       1.00
      F333          F  0.5084100  0.6164200  0.4617700    0.00000       Uiso       1.00
      F334          F  0.5610900  0.6914300  0.5065400    0.00000       Uiso       1.00
      F335          F -0.0593800  0.2302000 -0.0124600    0.00000       Uiso       1.00
      F336          F  0.0192200  0.1560600 -0.0366300    0.00000       Uiso       1.00
      C337          C  0.0197500  0.8229200  0.1758900    0.00000       Uiso       1.00
      C338          C  0.0513200  0.8069800  0.2156700    0.00000       Uiso       1.00
      C339          C  0.0097500  0.7849800  0.2504400    0.00000       Uiso       1.00
      C340          C  0.9353099  0.7812300  0.2467000    0.00000       Uiso       1.00
      C341          C  0.9031900  0.7952800  0.2064000    0.00000       Uiso       1.00
      C342          C  0.9454600  0.8176801  0.1714300    0.00000       Uiso       1.00
      C343          C  0.6285100  0.4910200  0.4369200    0.00000       Uiso       1.00
      C344          C  0.6211800  0.4263400  0.4376300    0.00000       Uiso       1.00
      C345          C  0.6033900  0.3940000  0.4761300    0.00000       Uiso       1.00
      C346          C  0.5937100  0.4238800  0.5150400    0.00000       Uiso       1.00
      C347          C  0.5939500  0.4912100  0.5154500    0.00000       Uiso       1.00
      C348          C  0.6144700  0.5234900  0.4767200    0.00000       Uiso       1.00
      C349          C  0.5894700  0.3854200  0.5562900    0.00000       Uiso       1.00
      C350          C  0.6298700  0.4024000  0.5932100    0.00000       Uiso       1.00
      C351          C  0.6383900  0.3624900  0.6297400    0.00000       Uiso       1.00
      C352          C  0.5975800  0.3076900  0.6324600    0.00000       Uiso       1.00
      C353          C  0.5575800  0.2904100  0.5955500    0.00000       Uiso       1.00
      C354          C  0.5538700  0.3285800  0.5583900    0.00000       Uiso       1.00
      C355          C  0.0463900  0.4003000  0.1830300    0.00000       Uiso       1.00
      C356          C  0.0685400  0.3990200  0.2259200    0.00000       Uiso       1.00
      C357          C  0.0195500  0.4140800  0.2597700    0.00000       Uiso       1.00
      C358          C  0.9478500  0.4285200  0.2516900    0.00000       Uiso       1.00
      C359          C  0.9280900  0.4356400  0.2072600    0.00000       Uiso       1.00
      C360          C  0.9772600  0.4200200  0.1735400    0.00000       Uiso       1.00
      C361          C  0.9031400  0.4360600  0.2865900    0.00000       Uiso       1.00
      C362          C  0.9280099  0.4441300  0.3293700    0.00000       Uiso       1.00
      C363          C  0.8849200  0.4443400  0.3661500    0.00000       Uiso       1.00
      C364          C  0.8127700  0.4310800  0.3641200    0.00000       Uiso       1.00
      C365          C  0.7834600  0.4222200  0.3213000    0.00000       Uiso       1.00
      C366          C  0.8283400  0.4241200  0.2827200    0.00000       Uiso       1.00
      C367          C  0.8850900  0.1345800  0.9152400    0.00000       Uiso       1.00
      C368          C  0.9310300  0.1517200  0.8817600    0.00000       Uiso       1.00
      C369          C  0.9242900  0.2067700  0.8585000    0.00000       Uiso       1.00
      C370          C  0.8715600  0.2501800  0.8690100    0.00000       Uiso       1.00
      C371          C  0.8216800  0.2339200  0.9019600    0.00000       Uiso       1.00
      C372          C  0.8287700  0.1766800  0.9251900    0.00000       Uiso       1.00
      C373          C  0.2451300  0.0801700  0.8718800    0.00000       Uiso       1.00
      C374          C  0.2392800  0.0663100  0.8268600    0.00000       Uiso       1.00
      C375          C  0.1716700  0.0665600  0.8058100    0.00000       Uiso       1.00
      C376          C  0.1069900  0.0760200  0.8296500    0.00000       Uiso       1.00
      C377          C  0.1145300  0.0890600  0.8749800    0.00000       Uiso       1.00
      C378          C  0.1820500  0.0921800  0.8950800    0.00000       Uiso       1.00
      H379          H  0.0898800  0.1300100  0.7517700    0.00000       Uiso       1.00
      H380          H  0.9762800  0.1543200  0.7111600    0.00000       Uiso       1.00
      H381          H  0.8480800  0.1714600  0.7160500    0.00000       Uiso       1.00
      H382          H  0.7307300  0.1552500  0.7557999    0.00000       Uiso       1.00
      H383          H  0.6608800  0.1037300  0.8128400    0.00000       Uiso       1.00
      H384          H  0.6587100  0.0443200  0.8851500    0.00000       Uiso       1.00
      H385          H  0.3366600  0.1159400  0.9158700    0.00000       Uiso       1.00
      H386          H  0.7779100  0.8881800  0.9035200    0.00000       Uiso       1.00
      H387          H  0.7778700  0.8454200  0.9819400    0.00000       Uiso       1.00
      H388          H  0.7465100  0.0337700  0.0338900    0.00000       Uiso       1.00
      H389          H  0.7404400  0.0757000  0.9576400    0.00000       Uiso       1.00
      H390          H  0.7970000  0.8597199  0.0609100    0.00000       Uiso       1.00
      H391          H  0.9275100  0.7470900  0.8687400    0.00000       Uiso       1.00
      H392          H  0.9071100  0.7540200  0.9508100    0.00000       Uiso       1.00
      H393          H  0.9174801  0.8121700  0.0170800    0.00000       Uiso       1.00
      H394          H  0.9266100  0.9169600  0.0549300    0.00000       Uiso       1.00
      H395          H  0.9119999  0.0306800  0.0510200    0.00000       Uiso       1.00
      H396          H  0.8742200  0.1235400  0.0045400    0.00000       Uiso       1.00
      H397          H  0.1682100  0.7963799  0.7141000    0.00000       Uiso       1.00
      H398          H  0.8226100  0.3275900  0.8264000    0.00000       Uiso       1.00
      H399          H  0.1116700  0.8118700  0.2200400    0.00000       Uiso       1.00
      H400          H  0.0363000  0.7696700  0.2825900    0.00000       Uiso       1.00
      H401          H  0.8430800  0.7885800  0.2019900    0.00000       Uiso       1.00
      H402          H  0.9184900  0.8316699  0.1391100    0.00000       Uiso       1.00
      H403          H  0.6297800  0.3982000  0.4061000    0.00000       Uiso       1.00
      H404          H  0.5966900  0.3411800  0.4752300    0.00000       Uiso       1.00
      H405          H  0.5777700  0.5174500  0.5466700    0.00000       Uiso       1.00
      H406          H  0.6196400  0.5764300  0.4778500    0.00000       Uiso       1.00
      H407          H  0.6571900  0.4499000  0.5943800    0.00000       Uiso       1.00
      H408          H  0.6782800  0.3747300  0.6569100    0.00000       Uiso       1.00
      H409          H  0.5271800  0.2443200  0.5954500    0.00000       Uiso       1.00
      H410          H  0.5204300  0.3120100  0.5291400    0.00000       Uiso       1.00
      H411          H  0.1261400  0.3858700  0.2341600    0.00000       Uiso       1.00
      H412          H  0.0379100  0.4148500  0.2957100    0.00000       Uiso       1.00
      H413          H  0.8725901  0.4539600  0.1985000    0.00000       Uiso       1.00
      H414          H  0.9588199  0.4239700  0.1377200    0.00000       Uiso       1.00
      H415          H  0.9876200  0.4511500  0.3356700    0.00000       Uiso       1.00
      H416          H  0.9085500  0.4557700  0.3999400    0.00000       Uiso       1.00
      H417          H  0.7236400  0.4134700  0.3171800    0.00000       Uiso       1.00
      H418          H  0.8035400  0.4159600  0.2487700    0.00000       Uiso       1.00
      H419          H  0.9772699  0.1198200  0.8721200    0.00000       Uiso       1.00
      H420          H  0.9623600  0.2174500  0.8300300    0.00000       Uiso       1.00
      H421          H  0.7754800  0.2667200  0.9100400    0.00000       Uiso       1.00
      H422          H  0.7884000  0.1647800  0.9521700    0.00000       Uiso       1.00
      H423          H  0.2892300  0.0546900  0.8068300    0.00000       Uiso       1.00
      H424          H  0.1678500  0.0590100  0.7685800    0.00000       Uiso       1.00
      H425          H  0.0650600  0.0973700  0.8962500    0.00000       Uiso       1.00
      H426          H  0.1843800  0.1050300  0.9316300    0.00000       Uiso       1.00
      B427          B  0.7184700  0.7307000  0.9582500    0.00000       Uiso       1.00
      C428          C  0.5354600  0.5778000  0.8050200    0.00000       Uiso       1.00
      C429          C  0.5366900  0.6132300  0.7658900    0.00000       Uiso       1.00
      C430          C  0.4740300  0.6282600  0.7439800    0.00000       Uiso       1.00
      C431          C  0.4084300  0.6115700  0.7620099    0.00000       Uiso       1.00
      C432          C  0.3458600  0.6397600  0.7462800    0.00000       Uiso       1.00
      C433          C  0.2807000  0.6294100  0.7672800    0.00000       Uiso       1.00
      C434          C  0.2759900  0.5874100  0.8024900    0.00000       Uiso       1.00
      C435          C  0.2118200  0.5808400  0.8257601    0.00000       Uiso       1.00
      C436          C  0.2099500  0.5463500  0.8647300    0.00000       Uiso       1.00
      C437          C  0.2709800  0.5139000  0.8791500    0.00000       Uiso       1.00
      C438          C  0.3374600  0.5552200  0.8172400    0.00000       Uiso       1.00
      C439          C  0.4062700  0.5702200  0.7984200    0.00000       Uiso       1.00
      C440          C  0.8130200  0.5741900  0.8976800    0.00000       Uiso       1.00
      C441          C  0.2641500  0.4861700  0.9243300    0.00000       Uiso       1.00
      C442          C  0.2715300  0.4219300  0.9323700    0.00000       Uiso       1.00
      C443          C  0.2712200  0.3976300  0.9762200    0.00000       Uiso       1.00
      C444          C  0.2629000  0.4360600  0.0135700    0.00000       Uiso       1.00
      C445          C  0.2533700  0.4998200  0.0052000    0.00000       Uiso       1.00
      C446          C  0.2519600  0.5238300  0.9618200    0.00000       Uiso       1.00
      C447          C  0.2782900  0.4102700  0.0594300    0.00000       Uiso       1.00
      C448          C  0.4476800  0.3477500  0.8625200    0.00000       Uiso       1.00
      C449          C  0.4312300  0.2939400  0.8863900    0.00000       Uiso       1.00
      C450          C  0.4196700  0.2978800  0.9309800    0.00000       Uiso       1.00
      C451          C  0.4232400  0.3538600  0.9511800    0.00000       Uiso       1.00
      C452          C  0.4212700  0.3568500  0.9968000    0.00000       Uiso       1.00
      C453          C  0.4239100  0.4140800  0.0173300    0.00000       Uiso       1.00
      C454          C  0.4233900  0.4697900  0.9931200    0.00000       Uiso       1.00
      C455          C  0.4101300  0.5267700  0.0134500    0.00000       Uiso       1.00
      C456          C  0.3945400  0.5791900  0.9879900    0.00000       Uiso       1.00
      C457          C  0.4037200  0.5775800  0.9422400    0.00000       Uiso       1.00
      C458          C  0.4326800  0.4682000  0.9472300    0.00000       Uiso       1.00
      C459          C  0.4348000  0.4084600  0.9256500    0.00000       Uiso       1.00
      C460          C  0.6082000  0.2870500  0.7123900    0.00000       Uiso       1.00
      C461          C  0.3717400  0.8111900  0.8455000    0.00000       Uiso       1.00
     Cu462         Cu  0.4275000  0.4951900  0.8655100    0.00000       Uiso       1.00
      F463          F  0.7008700  0.7659100  0.9963200    0.00000       Uiso       1.00
      F464          F  0.7537100  0.7686000  0.9266200    0.00000       Uiso       1.00
      F465          F  0.7636000  0.6805000  0.9705900    0.00000       Uiso       1.00
      F466          F  0.6547100  0.7077700  0.9394300    0.00000       Uiso       1.00
      N467          N  0.4697000  0.5513800  0.8181100    0.00000       Uiso       1.00
      N468          N  0.3314400  0.5161100  0.8528000    0.00000       Uiso       1.00
      N469          N  0.4364800  0.4062400  0.8815000    0.00000       Uiso       1.00
      N470          N  0.4302500  0.5231800  0.9240600    0.00000       Uiso       1.00
      N471          N  0.8452400  0.5203400  0.8992200    0.00000       Uiso       1.00
      N472          N  0.2711900  0.4425800  0.0960100    0.00000       Uiso       1.00
      N473          N  0.5768700  0.2813600  0.6742700    0.00000       Uiso       1.00
      N474          N  0.4291100  0.8460900  0.8469300    0.00000       Uiso       1.00
      F475          F  0.0084100  0.1164200  0.4617700    0.00000       Uiso       1.00
      F476          F  0.0610900  0.1914300  0.5065400    0.00000       Uiso       1.00
      F477          F  0.4406200  0.7302000 -0.0124600    0.00000       Uiso       1.00
      F478          F  0.5192200  0.6560600 -0.0366300    0.00000       Uiso       1.00
      C479          C  0.5197500  0.3229200  0.1758900    0.00000       Uiso       1.00
      C480          C  0.5513200  0.3069800  0.2156700    0.00000       Uiso       1.00
      C481          C  0.5097500  0.2849800  0.2504400    0.00000       Uiso       1.00
      C482          C  0.4353100  0.2812300  0.2467000    0.00000       Uiso       1.00
      C483          C  0.4031900  0.2952800  0.2064000    0.00000       Uiso       1.00
      C484          C  0.4454600  0.3176800  0.1714300    0.00000       Uiso       1.00
      C485          C  0.1285100  0.9910200  0.4369200    0.00000       Uiso       1.00
      C486          C  0.1211800  0.9263400  0.4376300    0.00000       Uiso       1.00
      C487          C  0.1033900  0.8939999  0.4761300    0.00000       Uiso       1.00
      C488          C  0.0937100  0.9238800  0.5150400    0.00000       Uiso       1.00
      C489          C  0.0939500  0.9912100  0.5154500    0.00000       Uiso       1.00
      C490          C  0.1144700  0.0234900  0.4767200    0.00000       Uiso       1.00
      C491          C  0.0894700  0.8854200  0.5562900    0.00000       Uiso       1.00
      C492          C  0.1298700  0.9024000  0.5932100    0.00000       Uiso       1.00
      C493          C  0.1383900  0.8624900  0.6297400    0.00000       Uiso       1.00
      C494          C  0.0975800  0.8076900  0.6324600    0.00000       Uiso       1.00
      C495          C  0.0575800  0.7904100  0.5955500    0.00000       Uiso       1.00
      C496          C  0.0538700  0.8285800  0.5583900    0.00000       Uiso       1.00
      C497          C  0.5463900  0.9003000  0.1830300    0.00000       Uiso       1.00
      C498          C  0.5685400  0.8990200  0.2259200    0.00000       Uiso       1.00
      C499          C  0.5195500  0.9140801  0.2597700    0.00000       Uiso       1.00
      C500          C  0.4478500  0.9285200  0.2516900    0.00000       Uiso       1.00
      C501          C  0.4280900  0.9356399  0.2072600    0.00000       Uiso       1.00
      C502          C  0.4772600  0.9200200  0.1735400    0.00000       Uiso       1.00
      C503          C  0.4031400  0.9360601  0.2865900    0.00000       Uiso       1.00
      C504          C  0.4280100  0.9441300  0.3293700    0.00000       Uiso       1.00
      C505          C  0.3849200  0.9443399  0.3661500    0.00000       Uiso       1.00
      C506          C  0.3127700  0.9310800  0.3641200    0.00000       Uiso       1.00
      C507          C  0.2834600  0.9222200  0.3213000    0.00000       Uiso       1.00
      C508          C  0.3283400  0.9241200  0.2827200    0.00000       Uiso       1.00
      C509          C  0.3850900  0.6345800  0.9152400    0.00000       Uiso       1.00
      C510          C  0.4310300  0.6517200  0.8817600    0.00000       Uiso       1.00
      C511          C  0.4242900  0.7067700  0.8585000    0.00000       Uiso       1.00
      C512          C  0.3715600  0.7501800  0.8690100    0.00000       Uiso       1.00
      C513          C  0.3216800  0.7339200  0.9019600    0.00000       Uiso       1.00
      C514          C  0.3287700  0.6766800  0.9251900    0.00000       Uiso       1.00
      C515          C  0.7451300  0.5801700  0.8718800    0.00000       Uiso       1.00
      C516          C  0.7392800  0.5663100  0.8268600    0.00000       Uiso       1.00
      C517          C  0.6716700  0.5665600  0.8058100    0.00000       Uiso       1.00
      C518          C  0.6069900  0.5760200  0.8296500    0.00000       Uiso       1.00
      C519          C  0.6145300  0.5890600  0.8749800    0.00000       Uiso       1.00
      C520          C  0.6820500  0.5921800  0.8950800    0.00000       Uiso       1.00
      H521          H  0.5898800  0.6300100  0.7517700    0.00000       Uiso       1.00
      H522          H  0.4762800  0.6543200  0.7111600    0.00000       Uiso       1.00
      H523          H  0.3480800  0.6714600  0.7160500    0.00000       Uiso       1.00
      H524          H  0.2307300  0.6552500  0.7557999    0.00000       Uiso       1.00
      H525          H  0.1608800  0.6037300  0.8128400    0.00000       Uiso       1.00
      H526          H  0.1587100  0.5443200  0.8851500    0.00000       Uiso       1.00
      H527          H  0.8366600  0.6159400  0.9158700    0.00000       Uiso       1.00
      H528          H  0.2779100  0.3881800  0.9035200    0.00000       Uiso       1.00
      H529          H  0.2778700  0.3454200  0.9819400    0.00000       Uiso       1.00
      H530          H  0.2465100  0.5337700  0.0338900    0.00000       Uiso       1.00
      H531          H  0.2404400  0.5757000  0.9576400    0.00000       Uiso       1.00
      H532          H  0.2970000  0.3597200  0.0609100    0.00000       Uiso       1.00
      H533          H  0.4275100  0.2470900  0.8687400    0.00000       Uiso       1.00
      H534          H  0.4071100  0.2540200  0.9508100    0.00000       Uiso       1.00
      H535          H  0.4174800  0.3121700  0.0170800    0.00000       Uiso       1.00
      H536          H  0.4266100  0.4169600  0.0549300    0.00000       Uiso       1.00
      H537          H  0.4120000  0.5306800  0.0510200    0.00000       Uiso       1.00
      H538          H  0.3742200  0.6235400  0.0045400    0.00000       Uiso       1.00
      H539          H  0.6682100  0.2963800  0.7141000    0.00000       Uiso       1.00
      H540          H  0.3226100  0.8275900  0.8264000    0.00000       Uiso       1.00
      H541          H  0.6116700  0.3118700  0.2200400    0.00000       Uiso       1.00
      H542          H  0.5363000  0.2696700  0.2825900    0.00000       Uiso       1.00
      H543          H  0.3430800  0.2885800  0.2019900    0.00000       Uiso       1.00
      H544          H  0.4184900  0.3316700  0.1391100    0.00000       Uiso       1.00
      H545          H  0.1297800  0.8982000  0.4061000    0.00000       Uiso       1.00
      H546          H  0.0966900  0.8411801  0.4752300    0.00000       Uiso       1.00
      H547          H  0.0777700  0.0174500  0.5466700    0.00000       Uiso       1.00
      H548          H  0.1196400  0.0764300  0.4778500    0.00000       Uiso       1.00
      H549          H  0.1571900  0.9498999  0.5943800    0.00000       Uiso       1.00
      H550          H  0.1782800  0.8747300  0.6569100    0.00000       Uiso       1.00
      H551          H  0.0271800  0.7443200  0.5954500    0.00000       Uiso       1.00
      H552          H  0.0204300  0.8120099  0.5291400    0.00000       Uiso       1.00
      H553          H  0.6261400  0.8858700  0.2341600    0.00000       Uiso       1.00
      H554          H  0.5379100  0.9148499  0.2957100    0.00000       Uiso       1.00
      H555          H  0.3725900  0.9539600  0.1985000    0.00000       Uiso       1.00
      H556          H  0.4588200  0.9239700  0.1377200    0.00000       Uiso       1.00
      H557          H  0.4876200  0.9511500  0.3356700    0.00000       Uiso       1.00
      H558          H  0.4085500  0.9557700  0.3999400    0.00000       Uiso       1.00
      H559          H  0.2236400  0.9134700  0.3171800    0.00000       Uiso       1.00
      H560          H  0.3035400  0.9159600  0.2487700    0.00000       Uiso       1.00
      H561          H  0.4772700  0.6198200  0.8721200    0.00000       Uiso       1.00
      H562          H  0.4623600  0.7174500  0.8300300    0.00000       Uiso       1.00
      H563          H  0.2754800  0.7667200  0.9100400    0.00000       Uiso       1.00
      H564          H  0.2884000  0.6647800  0.9521700    0.00000       Uiso       1.00
      H565          H  0.7892300  0.5546900  0.8068300    0.00000       Uiso       1.00
      H566          H  0.6678500  0.5590100  0.7685800    0.00000       Uiso       1.00
      H567          H  0.5650600  0.5973700  0.8962500    0.00000       Uiso       1.00
      H568          H  0.6843800  0.6050300  0.9316300    0.00000       Uiso       1.00
      B569          B  0.7184700  0.2307000  0.5417500    0.00000       Uiso       1.00
      C570          C  0.5354600  0.0778000  0.6949800    0.00000       Uiso       1.00
      C571          C  0.5366900  0.1132300  0.7341100    0.00000       Uiso       1.00
      C572          C  0.4740300  0.1282600  0.7560200    0.00000       Uiso       1.00
      C573          C  0.4084300  0.1115700  0.7379901    0.00000       Uiso       1.00
      C574          C  0.3458600  0.1397600  0.7537200    0.00000       Uiso       1.00
      C575          C  0.2807000  0.1294100  0.7327200    0.00000       Uiso       1.00
      C576          C  0.2759900  0.0874100  0.6975100    0.00000       Uiso       1.00
      C577          C  0.2118200  0.0808400  0.6742399    0.00000       Uiso       1.00
      C578          C  0.2099500  0.0463500  0.6352700    0.00000       Uiso       1.00
      C579          C  0.2709800  0.0139000  0.6208500    0.00000       Uiso       1.00
      C580          C  0.3374600  0.0552200  0.6827600    0.00000       Uiso       1.00
      C581          C  0.4062700  0.0702200  0.7015800    0.00000       Uiso       1.00
      C582          C  0.8130200  0.0741900  0.6023200    0.00000       Uiso       1.00
      C583          C  0.2641500  0.9861700  0.5756700    0.00000       Uiso       1.00
      C584          C  0.2715300  0.9219300  0.5676300    0.00000       Uiso       1.00
      C585          C  0.2712200  0.8976300  0.5237800    0.00000       Uiso       1.00
      C586          C  0.2629000  0.9360601  0.4864300    0.00000       Uiso       1.00
      C587          C  0.2533700  0.9998200  0.4948000    0.00000       Uiso       1.00
      C588          C  0.2519600  0.0238300  0.5381800    0.00000       Uiso       1.00
      C589          C  0.2782900  0.9102700  0.4405700    0.00000       Uiso       1.00
      C590          C  0.4476800  0.8477501  0.6374800    0.00000       Uiso       1.00
      C591          C  0.4312300  0.7939400  0.6136100    0.00000       Uiso       1.00
      C592          C  0.4196700  0.7978800  0.5690200    0.00000       Uiso       1.00
      C593          C  0.4232400  0.8538600  0.5488200    0.00000       Uiso       1.00
      C594          C  0.4212700  0.8568500  0.5032000    0.00000       Uiso       1.00
      C595          C  0.4239100  0.9140801  0.4826700    0.00000       Uiso       1.00
      C596          C  0.4233900  0.9697900  0.5068800    0.00000       Uiso       1.00
      C597          C  0.4101300  0.0267700  0.4865500    0.00000       Uiso       1.00
      C598          C  0.3945400  0.0791900  0.5120100    0.00000       Uiso       1.00
      C599          C  0.4037200  0.0775800  0.5577600    0.00000       Uiso       1.00
      C600          C  0.4326800  0.9682001  0.5527700    0.00000       Uiso       1.00
      C601          C  0.4348000  0.9084601  0.5743500    0.00000       Uiso       1.00
      C602          C  0.6082000  0.7870500  0.7876100    0.00000       Uiso       1.00
      C603          C  0.3717400  0.3111900  0.6545000    0.00000       Uiso       1.00
     Cu604         Cu  0.4275000  0.9951900  0.6344900    0.00000       Uiso       1.00
      F605          F  0.7008700  0.2659100  0.5036800    0.00000       Uiso       1.00
      F606          F  0.7537100  0.2686000  0.5733800    0.00000       Uiso       1.00
      F607          F  0.7636000  0.1805000  0.5294100    0.00000       Uiso       1.00
      F608          F  0.6547100  0.2077700  0.5605700    0.00000       Uiso       1.00
      N609          N  0.4697000  0.0513800  0.6818900    0.00000       Uiso       1.00
      N610          N  0.3314400  0.0161100  0.6472000    0.00000       Uiso       1.00
      N611          N  0.4364800  0.9062400  0.6185000    0.00000       Uiso       1.00
      N612          N  0.4302500  0.0231800  0.5759400    0.00000       Uiso       1.00
      N613          N  0.8452400  0.0203400  0.6007800    0.00000       Uiso       1.00
      N614          N  0.2711900  0.9425800  0.4039900    0.00000       Uiso       1.00
      N615          N  0.5768700  0.7813600  0.8257300    0.00000       Uiso       1.00
      N616          N  0.4291100  0.3460900  0.6530700    0.00000       Uiso       1.00
      F617          F  0.0084100  0.6164200  0.0382300    0.00000       Uiso       1.00
      F618          F  0.0610900  0.6914300 -0.0065400    0.00000       Uiso       1.00
      F619          F  0.4406200  0.2302000  0.5124600    0.00000       Uiso       1.00
      F620          F  0.5192200  0.1560600  0.5366300    0.00000       Uiso       1.00
      C621          C  0.5197500  0.8229200  0.3241100    0.00000       Uiso       1.00
      C622          C  0.5513200  0.8069800  0.2843300    0.00000       Uiso       1.00
      C623          C  0.5097500  0.7849800  0.2495600    0.00000       Uiso       1.00
      C624          C  0.4353100  0.7812300  0.2533000    0.00000       Uiso       1.00
      C625          C  0.4031900  0.7952800  0.2936000    0.00000       Uiso       1.00
      C626          C  0.4454600  0.8176801  0.3285700    0.00000       Uiso       1.00
      C627          C  0.1285100  0.4910200  0.0630800    0.00000       Uiso       1.00
      C628          C  0.1211800  0.4263400  0.0623700    0.00000       Uiso       1.00
      C629          C  0.1033900  0.3940000  0.0238700    0.00000       Uiso       1.00
      C630          C  0.0937100  0.4238800  0.9849600    0.00000       Uiso       1.00
      C631          C  0.0939500  0.4912100  0.9845500    0.00000       Uiso       1.00
      C632          C  0.1144700  0.5234900  0.0232800    0.00000       Uiso       1.00
      C633          C  0.0894700  0.3854200  0.9437100    0.00000       Uiso       1.00
      C634          C  0.1298700  0.4024000  0.9067900    0.00000       Uiso       1.00
      C635          C  0.1383900  0.3624900  0.8702600    0.00000       Uiso       1.00
      C636          C  0.0975800  0.3076900  0.8675400    0.00000       Uiso       1.00
      C637          C  0.0575800  0.2904100  0.9044500    0.00000       Uiso       1.00
      C638          C  0.0538700  0.3285800  0.9416100    0.00000       Uiso       1.00
      C639          C  0.5463900  0.4003000  0.3169700    0.00000       Uiso       1.00
      C640          C  0.5685400  0.3990200  0.2740800    0.00000       Uiso       1.00
      C641          C  0.5195500  0.4140800  0.2402300    0.00000       Uiso       1.00
      C642          C  0.4478500  0.4285200  0.2483100    0.00000       Uiso       1.00
      C643          C  0.4280900  0.4356400  0.2927400    0.00000       Uiso       1.00
      C644          C  0.4772600  0.4200200  0.3264600    0.00000       Uiso       1.00
      C645          C  0.4031400  0.4360600  0.2134100    0.00000       Uiso       1.00
      C646          C  0.4280100  0.4441300  0.1706300    0.00000       Uiso       1.00
      C647          C  0.3849200  0.4443400  0.1338500    0.00000       Uiso       1.00
      C648          C  0.3127700  0.4310800  0.1358800    0.00000       Uiso       1.00
      C649          C  0.2834600  0.4222200  0.1787000    0.00000       Uiso       1.00
      C650          C  0.3283400  0.4241200  0.2172800    0.00000       Uiso       1.00
      C651          C  0.3850900  0.1345800  0.5847600    0.00000       Uiso       1.00
      C652          C  0.4310300  0.1517200  0.6182400    0.00000       Uiso       1.00
      C653          C  0.4242900  0.2067700  0.6415000    0.00000       Uiso       1.00
      C654          C  0.3715600  0.2501800  0.6309900    0.00000       Uiso       1.00
      C655          C  0.3216800  0.2339200  0.5980400    0.00000       Uiso       1.00
      C656          C  0.3287700  0.1766800  0.5748100    0.00000       Uiso       1.00
      C657          C  0.7451300  0.0801700  0.6281200    0.00000       Uiso       1.00
      C658          C  0.7392800  0.0663100  0.6731400    0.00000       Uiso       1.00
      C659          C  0.6716700  0.0665600  0.6941900    0.00000       Uiso       1.00
      C660          C  0.6069900  0.0760200  0.6703500    0.00000       Uiso       1.00
      C661          C  0.6145300  0.0890600  0.6250200    0.00000       Uiso       1.00
      C662          C  0.6820500  0.0921800  0.6049200    0.00000       Uiso       1.00
      H663          H  0.5898800  0.1300100  0.7482300    0.00000       Uiso       1.00
      H664          H  0.4762800  0.1543200  0.7888400    0.00000       Uiso       1.00
      H665          H  0.3480800  0.1714600  0.7839500    0.00000       Uiso       1.00
      H666          H  0.2307300  0.1552500  0.7442001    0.00000       Uiso       1.00
      H667          H  0.1608800  0.1037300  0.6871600    0.00000       Uiso       1.00
      H668          H  0.1587100  0.0443200  0.6148500    0.00000       Uiso       1.00
      H669          H  0.8366600  0.1159400  0.5841300    0.00000       Uiso       1.00
      H670          H  0.2779100  0.8881800  0.5964800    0.00000       Uiso       1.00
      H671          H  0.2778700  0.8454200  0.5180600    0.00000       Uiso       1.00
      H672          H  0.2465100  0.0337700  0.4661100    0.00000       Uiso       1.00
      H673          H  0.2404400  0.0757000  0.5423600    0.00000       Uiso       1.00
      H674          H  0.2970000  0.8597199  0.4390900    0.00000       Uiso       1.00
      H675          H  0.4275100  0.7470900  0.6312600    0.00000       Uiso       1.00
      H676          H  0.4071100  0.7540200  0.5491900    0.00000       Uiso       1.00
      H677          H  0.4174800  0.8121700  0.4829200    0.00000       Uiso       1.00
      H678          H  0.4266100  0.9169600  0.4450700    0.00000       Uiso       1.00
      H679          H  0.4120000  0.0306800  0.4489800    0.00000       Uiso       1.00
      H680          H  0.3742200  0.1235400  0.4954600    0.00000       Uiso       1.00
      H681          H  0.6682100  0.7963799  0.7859000    0.00000       Uiso       1.00
      H682          H  0.3226100  0.3275900  0.6736000    0.00000       Uiso       1.00
      H683          H  0.6116700  0.8118700  0.2799600    0.00000       Uiso       1.00
      H684          H  0.5363000  0.7696700  0.2174100    0.00000       Uiso       1.00
      H685          H  0.3430800  0.7885800  0.2980100    0.00000       Uiso       1.00
      H686          H  0.4184900  0.8316699  0.3608900    0.00000       Uiso       1.00
      H687          H  0.1297800  0.3982000  0.0939000    0.00000       Uiso       1.00
      H688          H  0.0966900  0.3411800  0.0247700    0.00000       Uiso       1.00
      H689          H  0.0777700  0.5174500  0.9533300    0.00000       Uiso       1.00
      H690          H  0.1196400  0.5764300  0.0221500    0.00000       Uiso       1.00
      H691          H  0.1571900  0.4499000  0.9056200    0.00000       Uiso       1.00
      H692          H  0.1782800  0.3747300  0.8430900    0.00000       Uiso       1.00
      H693          H  0.0271800  0.2443200  0.9045500    0.00000       Uiso       1.00
      H694          H  0.0204300  0.3120100  0.9708600    0.00000       Uiso       1.00
      H695          H  0.6261400  0.3858700  0.2658400    0.00000       Uiso       1.00
      H696          H  0.5379100  0.4148500  0.2042900    0.00000       Uiso       1.00
      H697          H  0.3725900  0.4539600  0.3015000    0.00000       Uiso       1.00
      H698          H  0.4588200  0.4239700  0.3622800    0.00000       Uiso       1.00
      H699          H  0.4876200  0.4511500  0.1643300    0.00000       Uiso       1.00
      H700          H  0.4085500  0.4557700  0.1000600    0.00000       Uiso       1.00
      H701          H  0.2236400  0.4134700  0.1828200    0.00000       Uiso       1.00
      H702          H  0.3035400  0.4159600  0.2512300    0.00000       Uiso       1.00
      H703          H  0.4772700  0.1198200  0.6278800    0.00000       Uiso       1.00
      H704          H  0.4623600  0.2174500  0.6699700    0.00000       Uiso       1.00
      H705          H  0.2754800  0.2667200  0.5899600    0.00000       Uiso       1.00
      H706          H  0.2884000  0.1647800  0.5478300    0.00000       Uiso       1.00
      H707          H  0.7892300  0.0546900  0.6931700    0.00000       Uiso       1.00
      H708          H  0.6678500  0.0590100  0.7314200    0.00000       Uiso       1.00
      H709          H  0.5650600  0.0973700  0.6037500    0.00000       Uiso       1.00
      H710          H  0.6843800  0.1050300  0.5683700    0.00000       Uiso       1.00
      B711          B  0.2184700  0.7307000  0.5417500    0.00000       Uiso       1.00
      C712          C  0.0354600  0.5778000  0.6949800    0.00000       Uiso       1.00
      C713          C  0.0366900  0.6132300  0.7341100    0.00000       Uiso       1.00
      C714          C  0.9740301  0.6282600  0.7560200    0.00000       Uiso       1.00
      C715          C  0.9084300  0.6115700  0.7379901    0.00000       Uiso       1.00
      C716          C  0.8458600  0.6397600  0.7537200    0.00000       Uiso       1.00
      C717          C  0.7807000  0.6294100  0.7327200    0.00000       Uiso       1.00
      C718          C  0.7759900  0.5874100  0.6975100    0.00000       Uiso       1.00
      C719          C  0.7118200  0.5808400  0.6742399    0.00000       Uiso       1.00
      C720          C  0.7099500  0.5463500  0.6352700    0.00000       Uiso       1.00
      C721          C  0.7709800  0.5139000  0.6208500    0.00000       Uiso       1.00
      C722          C  0.8374600  0.5552200  0.6827600    0.00000       Uiso       1.00
      C723          C  0.9062700  0.5702200  0.7015800    0.00000       Uiso       1.00
      C724          C  0.3130200  0.5741900  0.6023200    0.00000       Uiso       1.00
      C725          C  0.7641500  0.4861700  0.5756700    0.00000       Uiso       1.00
      C726          C  0.7715300  0.4219300  0.5676300    0.00000       Uiso       1.00
      C727          C  0.7712200  0.3976300  0.5237800    0.00000       Uiso       1.00
      C728          C  0.7629000  0.4360600  0.4864300    0.00000       Uiso       1.00
      C729          C  0.7533700  0.4998200  0.4948000    0.00000       Uiso       1.00
      C730          C  0.7519600  0.5238300  0.5381800    0.00000       Uiso       1.00
      C731          C  0.7782900  0.4102700  0.4405700    0.00000       Uiso       1.00
      C732          C  0.9476801  0.3477500  0.6374800    0.00000       Uiso       1.00
      C733          C  0.9312301  0.2939400  0.6136100    0.00000       Uiso       1.00
      C734          C  0.9196699  0.2978800  0.5690200    0.00000       Uiso       1.00
      C735          C  0.9232400  0.3538600  0.5488200    0.00000       Uiso       1.00
      C736          C  0.9212700  0.3568500  0.5032000    0.00000       Uiso       1.00
      C737          C  0.9239100  0.4140800  0.4826700    0.00000       Uiso       1.00
      C738          C  0.9233900  0.4697900  0.5068800    0.00000       Uiso       1.00
      C739          C  0.9101300  0.5267700  0.4865500    0.00000       Uiso       1.00
      C740          C  0.8945400  0.5791900  0.5120100    0.00000       Uiso       1.00
      C741          C  0.9037200  0.5775800  0.5577600    0.00000       Uiso       1.00
      C742          C  0.9326800  0.4682000  0.5527700    0.00000       Uiso       1.00
      C743          C  0.9348000  0.4084600  0.5743500    0.00000       Uiso       1.00
      C744          C  0.1082000  0.2870500  0.7876100    0.00000       Uiso       1.00
      C745          C  0.8717399  0.8111900  0.6545000    0.00000       Uiso       1.00
     Cu746         Cu  0.9275000  0.4951900  0.6344900    0.00000       Uiso       1.00
      F747          F  0.2008700  0.7659100  0.5036800    0.00000       Uiso       1.00
      F748          F  0.2537100  0.7686000  0.5733800    0.00000       Uiso       1.00
      F749          F  0.2636000  0.6805000  0.5294100    0.00000       Uiso       1.00
      F750          F  0.1547100  0.7077700  0.5605700    0.00000       Uiso       1.00
      N751          N  0.9696999  0.5513800  0.6818900    0.00000       Uiso       1.00
      N752          N  0.8314400  0.5161100  0.6472000    0.00000       Uiso       1.00
      N753          N  0.9364800  0.4062400  0.6185000    0.00000       Uiso       1.00
      N754          N  0.9302500  0.5231800  0.5759400    0.00000       Uiso       1.00
      N755          N  0.3452400  0.5203400  0.6007800    0.00000       Uiso       1.00
      N756          N  0.7711900  0.4425800  0.4039900    0.00000       Uiso       1.00
      N757          N  0.0768700  0.2813600  0.8257300    0.00000       Uiso       1.00
      N758          N  0.9291099  0.8460900  0.6530700    0.00000       Uiso       1.00
      F759          F  0.5084100  0.1164200  0.0382300    0.00000       Uiso       1.00
      F760          F  0.5610900  0.1914300 -0.0065400    0.00000       Uiso       1.00
      F761          F -0.0593800  0.7302000  0.5124600    0.00000       Uiso       1.00
      F762          F  0.0192200  0.6560600  0.5366300    0.00000       Uiso       1.00
      C763          C  0.0197500  0.3229200  0.3241100    0.00000       Uiso       1.00
      C764          C  0.0513200  0.3069800  0.2843300    0.00000       Uiso       1.00
      C765          C  0.0097500  0.2849800  0.2495600    0.00000       Uiso       1.00
      C766          C  0.9353099  0.2812300  0.2533000    0.00000       Uiso       1.00
      C767          C  0.9031900  0.2952800  0.2936000    0.00000       Uiso       1.00
      C768          C  0.9454600  0.3176800  0.3285700    0.00000       Uiso       1.00
      C769          C  0.6285100  0.9910200  0.0630800    0.00000       Uiso       1.00
      C770          C  0.6211800  0.9263400  0.0623700    0.00000       Uiso       1.00
      C771          C  0.6033900  0.8939999  0.0238700    0.00000       Uiso       1.00
      C772          C  0.5937100  0.9238800  0.9849600    0.00000       Uiso       1.00
      C773          C  0.5939500  0.9912100  0.9845500    0.00000       Uiso       1.00
      C774          C  0.6144700  0.0234900  0.0232800    0.00000       Uiso       1.00
      C775          C  0.5894700  0.8854200  0.9437100    0.00000       Uiso       1.00
      C776          C  0.6298700  0.9024000  0.9067900    0.00000       Uiso       1.00
      C777          C  0.6383900  0.8624900  0.8702600    0.00000       Uiso       1.00
      C778          C  0.5975800  0.8076900  0.8675400    0.00000       Uiso       1.00
      C779          C  0.5575800  0.7904100  0.9044500    0.00000       Uiso       1.00
      C780          C  0.5538700  0.8285800  0.9416100    0.00000       Uiso       1.00
      C781          C  0.0463900  0.9003000  0.3169700    0.00000       Uiso       1.00
      C782          C  0.0685400  0.8990200  0.2740800    0.00000       Uiso       1.00
      C783          C  0.0195500  0.9140801  0.2402300    0.00000       Uiso       1.00
      C784          C  0.9478500  0.9285200  0.2483100    0.00000       Uiso       1.00
      C785          C  0.9280900  0.9356399  0.2927400    0.00000       Uiso       1.00
      C786          C  0.9772600  0.9200200  0.3264600    0.00000       Uiso       1.00
      C787          C  0.9031400  0.9360601  0.2134100    0.00000       Uiso       1.00
      C788          C  0.9280099  0.9441300  0.1706300    0.00000       Uiso       1.00
      C789          C  0.8849200  0.9443399  0.1338500    0.00000       Uiso       1.00
      C790          C  0.8127700  0.9310800  0.1358800    0.00000       Uiso       1.00
      C791          C  0.7834600  0.9222200  0.1787000    0.00000       Uiso       1.00
      C792          C  0.8283400  0.9241200  0.2172800    0.00000       Uiso       1.00
      C793          C  0.8850900  0.6345800  0.5847600    0.00000       Uiso       1.00
      C794          C  0.9310300  0.6517200  0.6182400    0.00000       Uiso       1.00
      C795          C  0.9242900  0.7067700  0.6415000    0.00000       Uiso       1.00
      C796          C  0.8715600  0.7501800  0.6309900    0.00000       Uiso       1.00
      C797          C  0.8216800  0.7339200  0.5980400    0.00000       Uiso       1.00
      C798          C  0.8287700  0.6766800  0.5748100    0.00000       Uiso       1.00
      C799          C  0.2451300  0.5801700  0.6281200    0.00000       Uiso       1.00
      C800          C  0.2392800  0.5663100  0.6731400    0.00000       Uiso       1.00
      C801          C  0.1716700  0.5665600  0.6941900    0.00000       Uiso       1.00
      C802          C  0.1069900  0.5760200  0.6703500    0.00000       Uiso       1.00
      C803          C  0.1145300  0.5890600  0.6250200    0.00000       Uiso       1.00
      C804          C  0.1820500  0.5921800  0.6049200    0.00000       Uiso       1.00
      H805          H  0.0898800  0.6300100  0.7482300    0.00000       Uiso       1.00
      H806          H  0.9762800  0.6543200  0.7888400    0.00000       Uiso       1.00
      H807          H  0.8480800  0.6714600  0.7839500    0.00000       Uiso       1.00
      H808          H  0.7307300  0.6552500  0.7442001    0.00000       Uiso       1.00
      H809          H  0.6608800  0.6037300  0.6871600    0.00000       Uiso       1.00
      H810          H  0.6587100  0.5443200  0.6148500    0.00000       Uiso       1.00
      H811          H  0.3366600  0.6159400  0.5841300    0.00000       Uiso       1.00
      H812          H  0.7779100  0.3881800  0.5964800    0.00000       Uiso       1.00
      H813          H  0.7778700  0.3454200  0.5180600    0.00000       Uiso       1.00
      H814          H  0.7465100  0.5337700  0.4661100    0.00000       Uiso       1.00
      H815          H  0.7404400  0.5757000  0.5423600    0.00000       Uiso       1.00
      H816          H  0.7970000  0.3597200  0.4390900    0.00000       Uiso       1.00
      H817          H  0.9275100  0.2470900  0.6312600    0.00000       Uiso       1.00
      H818          H  0.9071100  0.2540200  0.5491900    0.00000       Uiso       1.00
      H819          H  0.9174801  0.3121700  0.4829200    0.00000       Uiso       1.00
      H820          H  0.9266100  0.4169600  0.4450700    0.00000       Uiso       1.00
      H821          H  0.9119999  0.5306800  0.4489800    0.00000       Uiso       1.00
      H822          H  0.8742200  0.6235400  0.4954600    0.00000       Uiso       1.00
      H823          H  0.1682100  0.2963800  0.7859000    0.00000       Uiso       1.00
      H824          H  0.8226100  0.8275900  0.6736000    0.00000       Uiso       1.00
      H825          H  0.1116700  0.3118700  0.2799600    0.00000       Uiso       1.00
      H826          H  0.0363000  0.2696700  0.2174100    0.00000       Uiso       1.00
      H827          H  0.8430800  0.2885800  0.2980100    0.00000       Uiso       1.00
      H828          H  0.9184900  0.3316700  0.3608900    0.00000       Uiso       1.00
      H829          H  0.6297800  0.8982000  0.0939000    0.00000       Uiso       1.00
      H830          H  0.5966900  0.8411801  0.0247700    0.00000       Uiso       1.00
      H831          H  0.5777700  0.0174500  0.9533300    0.00000       Uiso       1.00
      H832          H  0.6196400  0.0764300  0.0221500    0.00000       Uiso       1.00
      H833          H  0.6571900  0.9498999  0.9056200    0.00000       Uiso       1.00
      H834          H  0.6782800  0.8747300  0.8430900    0.00000       Uiso       1.00
      H835          H  0.5271800  0.7443200  0.9045500    0.00000       Uiso       1.00
      H836          H  0.5204300  0.8120099  0.9708600    0.00000       Uiso       1.00
      H837          H  0.1261400  0.8858700  0.2658400    0.00000       Uiso       1.00
      H838          H  0.0379100  0.9148499  0.2042900    0.00000       Uiso       1.00
      H839          H  0.8725901  0.9539600  0.3015000    0.00000       Uiso       1.00
      H840          H  0.9588199  0.9239700  0.3622800    0.00000       Uiso       1.00
      H841          H  0.9876200  0.9511500  0.1643300    0.00000       Uiso       1.00
      H842          H  0.9085500  0.9557700  0.1000600    0.00000       Uiso       1.00
      H843          H  0.7236400  0.9134700  0.1828200    0.00000       Uiso       1.00
      H844          H  0.8035400  0.9159600  0.2512300    0.00000       Uiso       1.00
      H845          H  0.9772699  0.6198200  0.6278800    0.00000       Uiso       1.00
      H846          H  0.9623600  0.7174500  0.6699700    0.00000       Uiso       1.00
      H847          H  0.7754800  0.7667200  0.5899600    0.00000       Uiso       1.00
      H848          H  0.7884000  0.6647800  0.5478300    0.00000       Uiso       1.00
      H849          H  0.2892300  0.5546900  0.6931700    0.00000       Uiso       1.00
      H850          H  0.1678500  0.5590100  0.7314200    0.00000       Uiso       1.00
      H851          H  0.0650600  0.5973700  0.6037500    0.00000       Uiso       1.00
      H852          H  0.1843800  0.6050300  0.5683700    0.00000       Uiso       1.00
      B853          B  0.2815300  0.2307000  0.4582500    0.00000       Uiso       1.00
      C854          C  0.4645400  0.0778000  0.3050200    0.00000       Uiso       1.00
      C855          C  0.4633100  0.1132300  0.2658900    0.00000       Uiso       1.00
      C856          C  0.5259700  0.1282600  0.2439800    0.00000       Uiso       1.00
      C857          C  0.5915700  0.1115700  0.2620100    0.00000       Uiso       1.00
      C858          C  0.6541400  0.1397600  0.2462800    0.00000       Uiso       1.00
      C859          C  0.7193000  0.1294100  0.2672800    0.00000       Uiso       1.00
      C860          C  0.7240100  0.0874100  0.3024900    0.00000       Uiso       1.00
      C861          C  0.7881800  0.0808400  0.3257600    0.00000       Uiso       1.00
      C862          C  0.7900500  0.0463500  0.3647300    0.00000       Uiso       1.00
      C863          C  0.7290200  0.0139000  0.3791500    0.00000       Uiso       1.00
      C864          C  0.6625400  0.0552200  0.3172400    0.00000       Uiso       1.00
      C865          C  0.5937300  0.0702200  0.2984200    0.00000       Uiso       1.00
      C866          C  0.1869800  0.0741900  0.3976800    0.00000       Uiso       1.00
      C867          C  0.7358500  0.9861700  0.4243300    0.00000       Uiso       1.00
      C868          C  0.7284700  0.9219300  0.4323700    0.00000       Uiso       1.00
      C869          C  0.7287800  0.8976300  0.4762200    0.00000       Uiso       1.00
      C870          C  0.7371000  0.9360601  0.5135700    0.00000       Uiso       1.00
      C871          C  0.7466300  0.9998200  0.5052000    0.00000       Uiso       1.00
      C872          C  0.7480400  0.0238300  0.4618200    0.00000       Uiso       1.00
      C873          C  0.7217100  0.9102700  0.5594300    0.00000       Uiso       1.00
      C874          C  0.5523200  0.8477501  0.3625200    0.00000       Uiso       1.00
      C875          C  0.5687700  0.7939400  0.3863900    0.00000       Uiso       1.00
      C876          C  0.5803300  0.7978800  0.4309800    0.00000       Uiso       1.00
      C877          C  0.5767600  0.8538600  0.4511800    0.00000       Uiso       1.00
      C878          C  0.5787300  0.8568500  0.4968000    0.00000       Uiso       1.00
      C879          C  0.5760900  0.9140801  0.5173300    0.00000       Uiso       1.00
      C880          C  0.5766100  0.9697900  0.4931200    0.00000       Uiso       1.00
      C881          C  0.5898700  0.0267700  0.5134500    0.00000       Uiso       1.00
      C882          C  0.6054600  0.0791900  0.4879900    0.00000       Uiso       1.00
      C883          C  0.5962800  0.0775800  0.4422400    0.00000       Uiso       1.00
      C884          C  0.5673200  0.9682001  0.4472300    0.00000       Uiso       1.00
      C885          C  0.5652000  0.9084601  0.4256500    0.00000       Uiso       1.00
      C886          C  0.3918000  0.7870500  0.2123900    0.00000       Uiso       1.00
      C887          C  0.6282600  0.3111900  0.3455000    0.00000       Uiso       1.00
     Cu888         Cu  0.5725000  0.9951900  0.3655100    0.00000       Uiso       1.00
      F889          F  0.2991300  0.2659100  0.4963200    0.00000       Uiso       1.00
      F890          F  0.2462900  0.2686000  0.4266200    0.00000       Uiso       1.00
      F891          F  0.2364000  0.1805000  0.4705900    0.00000       Uiso       1.00
      F892          F  0.3452900  0.2077700  0.4394300    0.00000       Uiso       1.00
      N893          N  0.5303000  0.0513800  0.3181100    0.00000       Uiso       1.00
      N894          N  0.6685600  0.0161100  0.3528000    0.00000       Uiso       1.00
      N895          N  0.5635200  0.9062400  0.3815000    0.00000       Uiso       1.00
      N896          N  0.5697500  0.0231800  0.4240600    0.00000       Uiso       1.00
      N897          N  0.1547600  0.0203400  0.3992200    0.00000       Uiso       1.00
      N898          N  0.7288100  0.9425800  0.5960100    0.00000       Uiso       1.00
      N899          N  0.4231300  0.7813600  0.1742700    0.00000       Uiso       1.00
      N900          N  0.5708900  0.3460900  0.3469300    0.00000       Uiso       1.00
      F901          F -0.0084100  0.6164200 -0.0382300    0.00000       Uiso       1.00
      F902          F -0.0610900  0.6914300  0.0065400    0.00000       Uiso       1.00
      F903          F  0.5593800  0.2302000  0.4875400    0.00000       Uiso       1.00
      F904          F  0.4807800  0.1560600  0.4633700    0.00000       Uiso       1.00
      C905          C  0.4802500  0.8229200  0.6758900    0.00000       Uiso       1.00
      C906          C  0.4486800  0.8069800  0.7156700    0.00000       Uiso       1.00
      C907          C  0.4902500  0.7849800  0.7504400    0.00000       Uiso       1.00
      C908          C  0.5646900  0.7812300  0.7467000    0.00000       Uiso       1.00
      C909          C  0.5968100  0.7952800  0.7064000    0.00000       Uiso       1.00
      C910          C  0.5545400  0.8176801  0.6714300    0.00000       Uiso       1.00
      C911          C  0.8714900  0.4910200  0.9369200    0.00000       Uiso       1.00
      C912          C  0.8788201  0.4263400  0.9376300    0.00000       Uiso       1.00
      C913          C  0.8966101  0.3940000  0.9761300    0.00000       Uiso       1.00
      C914          C  0.9062900  0.4238800  0.0150400    0.00000       Uiso       1.00
      C915          C  0.9060500  0.4912100  0.0154500    0.00000       Uiso       1.00
      C916          C  0.8855300  0.5234900  0.9767200    0.00000       Uiso       1.00
      C917          C  0.9105300  0.3854200  0.0562900    0.00000       Uiso       1.00
      C918          C  0.8701300  0.4024000  0.0932100    0.00000       Uiso       1.00
      C919          C  0.8616100  0.3624900  0.1297400    0.00000       Uiso       1.00
      C920          C  0.9024200  0.3076900  0.1324600    0.00000       Uiso       1.00
      C921          C  0.9424200  0.2904100  0.0955500    0.00000       Uiso       1.00
      C922          C  0.9461300  0.3285800  0.0583900    0.00000       Uiso       1.00
      C923          C  0.4536100  0.4003000  0.6830300    0.00000       Uiso       1.00
      C924          C  0.4314600  0.3990200  0.7259200    0.00000       Uiso       1.00
      C925          C  0.4804500  0.4140800  0.7597700    0.00000       Uiso       1.00
      C926          C  0.5521500  0.4285200  0.7516900    0.00000       Uiso       1.00
      C927          C  0.5719100  0.4356400  0.7072601    0.00000       Uiso       1.00
      C928          C  0.5227400  0.4200200  0.6735400    0.00000       Uiso       1.00
      C929          C  0.5968600  0.4360600  0.7865900    0.00000       Uiso       1.00
      C930          C  0.5719900  0.4441300  0.8293700    0.00000       Uiso       1.00
      C931          C  0.6150800  0.4443400  0.8661500    0.00000       Uiso       1.00
      C932          C  0.6872300  0.4310800  0.8641200    0.00000       Uiso       1.00
      C933          C  0.7165400  0.4222200  0.8213000    0.00000       Uiso       1.00
      C934          C  0.6716600  0.4241200  0.7827200    0.00000       Uiso       1.00
      C935          C  0.6149100  0.1345800  0.4152400    0.00000       Uiso       1.00
      C936          C  0.5689700  0.1517200  0.3817600    0.00000       Uiso       1.00
      C937          C  0.5757100  0.2067700  0.3585000    0.00000       Uiso       1.00
      C938          C  0.6284400  0.2501800  0.3690100    0.00000       Uiso       1.00
      C939          C  0.6783200  0.2339200  0.4019600    0.00000       Uiso       1.00
      C940          C  0.6712300  0.1766800  0.4251900    0.00000       Uiso       1.00
      C941          C  0.2548700  0.0801700  0.3718800    0.00000       Uiso       1.00
      C942          C  0.2607200  0.0663100  0.3268600    0.00000       Uiso       1.00
      C943          C  0.3283300  0.0665600  0.3058100    0.00000       Uiso       1.00
      C944          C  0.3930100  0.0760200  0.3296500    0.00000       Uiso       1.00
      C945          C  0.3854700  0.0890600  0.3749800    0.00000       Uiso       1.00
      C946          C  0.3179500  0.0921800  0.3950800    0.00000       Uiso       1.00
      H947          H  0.4101200  0.1300100  0.2517700    0.00000       Uiso       1.00
      H948          H  0.5237200  0.1543200  0.2111600    0.00000       Uiso       1.00
      H949          H  0.6519200  0.1714600  0.2160500    0.00000       Uiso       1.00
      H950          H  0.7692700  0.1552500  0.2558000    0.00000       Uiso       1.00
      H951          H  0.8391200  0.1037300  0.3128400    0.00000       Uiso       1.00
      H952          H  0.8412900  0.0443200  0.3851500    0.00000       Uiso       1.00
      H953          H  0.1633400  0.1159400  0.4158700    0.00000       Uiso       1.00
      H954          H  0.7220900  0.8881800  0.4035200    0.00000       Uiso       1.00
      H955          H  0.7221300  0.8454200  0.4819400    0.00000       Uiso       1.00
      H956          H  0.7534900  0.0337700  0.5338900    0.00000       Uiso       1.00
      H957          H  0.7595600  0.0757000  0.4576400    0.00000       Uiso       1.00
      H958          H  0.7030000  0.8597199  0.5609100    0.00000       Uiso       1.00
      H959          H  0.5724900  0.7470900  0.3687400    0.00000       Uiso       1.00
      H960          H  0.5928900  0.7540200  0.4508100    0.00000       Uiso       1.00
      H961          H  0.5825200  0.8121700  0.5170800    0.00000       Uiso       1.00
      H962          H  0.5733900  0.9169600  0.5549300    0.00000       Uiso       1.00
      H963          H  0.5880000  0.0306800  0.5510200    0.00000       Uiso       1.00
      H964          H  0.6257800  0.1235400  0.5045400    0.00000       Uiso       1.00
      H965          H  0.3317900  0.7963799  0.2141000    0.00000       Uiso       1.00
      H966          H  0.6773900  0.3275900  0.3264000    0.00000       Uiso       1.00
      H967          H  0.3883300  0.8118700  0.7200400    0.00000       Uiso       1.00
      H968          H  0.4637000  0.7696700  0.7825900    0.00000       Uiso       1.00
      H969          H  0.6569200  0.7885800  0.7019900    0.00000       Uiso       1.00
      H970          H  0.5815100  0.8316699  0.6391100    0.00000       Uiso       1.00
      H971          H  0.8702200  0.3982000  0.9061000    0.00000       Uiso       1.00
      H972          H  0.9033100  0.3411800  0.9752300    0.00000       Uiso       1.00
      H973          H  0.9222301  0.5174500  0.0466700    0.00000       Uiso       1.00
      H974          H  0.8803599  0.5764300  0.9778500    0.00000       Uiso       1.00
      H975          H  0.8428100  0.4499000  0.0943800    0.00000       Uiso       1.00
      H976          H  0.8217200  0.3747300  0.1569100    0.00000       Uiso       1.00
      H977          H  0.9728200  0.2443200  0.0954500    0.00000       Uiso       1.00
      H978          H  0.9795700  0.3120100  0.0291400    0.00000       Uiso       1.00
      H979          H  0.3738600  0.3858700  0.7341600    0.00000       Uiso       1.00
      H980          H  0.4620900  0.4148500  0.7957100    0.00000       Uiso       1.00
      H981          H  0.6274100  0.4539600  0.6985000    0.00000       Uiso       1.00
      H982          H  0.5411800  0.4239700  0.6377200    0.00000       Uiso       1.00
      H983          H  0.5123800  0.4511500  0.8356700    0.00000       Uiso       1.00
      H984          H  0.5914500  0.4557700  0.8999400    0.00000       Uiso       1.00
      H985          H  0.7763600  0.4134700  0.8171800    0.00000       Uiso       1.00
      H986          H  0.6964600  0.4159600  0.7487700    0.00000       Uiso       1.00
      H987          H  0.5227300  0.1198200  0.3721200    0.00000       Uiso       1.00
      H988          H  0.5376400  0.2174500  0.3300300    0.00000       Uiso       1.00
      H989          H  0.7245200  0.2667200  0.4100400    0.00000       Uiso       1.00
      H990          H  0.7116000  0.1647800  0.4521700    0.00000       Uiso       1.00
      H991          H  0.2107700  0.0546900  0.3068300    0.00000       Uiso       1.00
      H992          H  0.3321500  0.0590100  0.2685800    0.00000       Uiso       1.00
      H993          H  0.4349400  0.0973700  0.3962500    0.00000       Uiso       1.00
      H994          H  0.3156200  0.1050300  0.4316300    0.00000       Uiso       1.00
      B995          B  0.7815300  0.7307000  0.4582500    0.00000       Uiso       1.00
      C996          C  0.9645400  0.5778000  0.3050200    0.00000       Uiso       1.00
      C997          C  0.9633101  0.6132300  0.2658900    0.00000       Uiso       1.00
      C998          C  0.0259700  0.6282600  0.2439800    0.00000       Uiso       1.00
      C999          C  0.0915700  0.6115700  0.2620100    0.00000       Uiso       1.00
     C1000          C  0.1541400  0.6397600  0.2462800    0.00000       Uiso       1.00
     C1001          C  0.2193000  0.6294100  0.2672800    0.00000       Uiso       1.00
     C1002          C  0.2240100  0.5874100  0.3024900    0.00000       Uiso       1.00
     C1003          C  0.2881800  0.5808400  0.3257600    0.00000       Uiso       1.00
     C1004          C  0.2900500  0.5463500  0.3647300    0.00000       Uiso       1.00
     C1005          C  0.2290200  0.5139000  0.3791500    0.00000       Uiso       1.00
     C1006          C  0.1625400  0.5552200  0.3172400    0.00000       Uiso       1.00
     C1007          C  0.0937300  0.5702200  0.2984200    0.00000       Uiso       1.00
     C1008          C  0.6869800  0.5741900  0.3976800    0.00000       Uiso       1.00
     C1009          C  0.2358500  0.4861700  0.4243300    0.00000       Uiso       1.00
     C1010          C  0.2284700  0.4219300  0.4323700    0.00000       Uiso       1.00
     C1011          C  0.2287800  0.3976300  0.4762200    0.00000       Uiso       1.00
     C1012          C  0.2371000  0.4360600  0.5135700    0.00000       Uiso       1.00
     C1013          C  0.2466300  0.4998200  0.5052000    0.00000       Uiso       1.00
     C1014          C  0.2480400  0.5238300  0.4618200    0.00000       Uiso       1.00
     C1015          C  0.2217100  0.4102700  0.5594300    0.00000       Uiso       1.00
     C1016          C  0.0523200  0.3477500  0.3625200    0.00000       Uiso       1.00
     C1017          C  0.0687700  0.2939400  0.3863900    0.00000       Uiso       1.00
     C1018          C  0.0803300  0.2978800  0.4309800    0.00000       Uiso       1.00
     C1019          C  0.0767600  0.3538600  0.4511800    0.00000       Uiso       1.00
     C1020          C  0.0787300  0.3568500  0.4968000    0.00000       Uiso       1.00
     C1021          C  0.0760900  0.4140800  0.5173300    0.00000       Uiso       1.00
     C1022          C  0.0766100  0.4697900  0.4931200    0.00000       Uiso       1.00
     C1023          C  0.0898700  0.5267700  0.5134500    0.00000       Uiso       1.00
     C1024          C  0.1054600  0.5791900  0.4879900    0.00000       Uiso       1.00
     C1025          C  0.0962800  0.5775800  0.4422400    0.00000       Uiso       1.00
     C1026          C  0.0673200  0.4682000  0.4472300    0.00000       Uiso       1.00
     C1027          C  0.0652000  0.4084600  0.4256500    0.00000       Uiso       1.00
     C1028          C  0.8918000  0.2870500  0.2123900    0.00000       Uiso       1.00
     C1029          C  0.1282600  0.8111900  0.3455000    0.00000       Uiso       1.00
     Cu103         Cu  0.0725000  0.4951900  0.3655100    0.00000       Uiso       1.00
     F1031          F  0.7991300  0.7659100  0.4963200    0.00000       Uiso       1.00
     F1032          F  0.7462900  0.7686000  0.4266200    0.00000       Uiso       1.00
     F1033          F  0.7364000  0.6805000  0.4705900    0.00000       Uiso       1.00
     F1034          F  0.8452900  0.7077700  0.4394300    0.00000       Uiso       1.00
     N1035          N  0.0303000  0.5513800  0.3181100    0.00000       Uiso       1.00
     N1036          N  0.1685600  0.5161100  0.3528000    0.00000       Uiso       1.00
     N1037          N  0.0635200  0.4062400  0.3815000    0.00000       Uiso       1.00
     N1038          N  0.0697500  0.5231800  0.4240600    0.00000       Uiso       1.00
     N1039          N  0.6547600  0.5203400  0.3992200    0.00000       Uiso       1.00
     N1040          N  0.2288100  0.4425800  0.5960100    0.00000       Uiso       1.00
     N1041          N  0.9231300  0.2813600  0.1742700    0.00000       Uiso       1.00
     N1042          N  0.0708900  0.8460900  0.3469300    0.00000       Uiso       1.00
     F1043          F  0.4915900  0.1164200 -0.0382300    0.00000       Uiso       1.00
     F1044          F  0.4389100  0.1914300  0.0065400    0.00000       Uiso       1.00
     F1045          F  0.0593800  0.7302000  0.4875400    0.00000       Uiso       1.00
     F1046          F -0.0192200  0.6560600  0.4633700    0.00000       Uiso       1.00
     C1047          C  0.9802499  0.3229200  0.6758900    0.00000       Uiso       1.00
     C1048          C  0.9486800  0.3069800  0.7156700    0.00000       Uiso       1.00
     C1049          C  0.9902499  0.2849800  0.7504400    0.00000       Uiso       1.00
     C1050          C  0.0646900  0.2812300  0.7467000    0.00000       Uiso       1.00
     C1051          C  0.0968100  0.2952800  0.7064000    0.00000       Uiso       1.00
     C1052          C  0.0545400  0.3176800  0.6714300    0.00000       Uiso       1.00
     C1053          C  0.3714900  0.9910200  0.9369200    0.00000       Uiso       1.00
     C1054          C  0.3788200  0.9263400  0.9376300    0.00000       Uiso       1.00
     C1055          C  0.3966100  0.8939999  0.9761300    0.00000       Uiso       1.00
     C1056          C  0.4062900  0.9238800  0.0150400    0.00000       Uiso       1.00
     C1057          C  0.4060500  0.9912100  0.0154500    0.00000       Uiso       1.00
     C1058          C  0.3855300  0.0234900  0.9767200    0.00000       Uiso       1.00
     C1059          C  0.4105300  0.8854200  0.0562900    0.00000       Uiso       1.00
     C1060          C  0.3701300  0.9024000  0.0932100    0.00000       Uiso       1.00
     C1061          C  0.3616100  0.8624900  0.1297400    0.00000       Uiso       1.00
     C1062          C  0.4024200  0.8076900  0.1324600    0.00000       Uiso       1.00
     C1063          C  0.4424200  0.7904100  0.0955500    0.00000       Uiso       1.00
     C1064          C  0.4461300  0.8285800  0.0583900    0.00000       Uiso       1.00
     C1065          C  0.9536100  0.9003000  0.6830300    0.00000       Uiso       1.00
     C1066          C  0.9314601  0.8990200  0.7259200    0.00000       Uiso       1.00
     C1067          C  0.9804500  0.9140801  0.7597700    0.00000       Uiso       1.00
     C1068          C  0.0521500  0.9285200  0.7516900    0.00000       Uiso       1.00
     C1069          C  0.0719100  0.9356399  0.7072601    0.00000       Uiso       1.00
     C1070          C  0.0227400  0.9200200  0.6735400    0.00000       Uiso       1.00
     C1071          C  0.0968600  0.9360601  0.7865900    0.00000       Uiso       1.00
     C1072          C  0.0719900  0.9441300  0.8293700    0.00000       Uiso       1.00
     C1073          C  0.1150800  0.9443399  0.8661500    0.00000       Uiso       1.00
     C1074          C  0.1872300  0.9310800  0.8641200    0.00000       Uiso       1.00
     C1075          C  0.2165400  0.9222200  0.8213000    0.00000       Uiso       1.00
     C1076          C  0.1716600  0.9241200  0.7827200    0.00000       Uiso       1.00
     C1077          C  0.1149100  0.6345800  0.4152400    0.00000       Uiso       1.00
     C1078          C  0.0689700  0.6517200  0.3817600    0.00000       Uiso       1.00
     C1079          C  0.0757100  0.7067700  0.3585000    0.00000       Uiso       1.00
     C1080          C  0.1284400  0.7501800  0.3690100    0.00000       Uiso       1.00
     C1081          C  0.1783200  0.7339200  0.4019600    0.00000       Uiso       1.00
     C1082          C  0.1712300  0.6766800  0.4251900    0.00000       Uiso       1.00
     C1083          C  0.7548700  0.5801700  0.3718800    0.00000       Uiso       1.00
     C1084          C  0.7607200  0.5663100  0.3268600    0.00000       Uiso       1.00
     C1085          C  0.8283300  0.5665600  0.3058100    0.00000       Uiso       1.00
     C1086          C  0.8930100  0.5760200  0.3296500    0.00000       Uiso       1.00
     C1087          C  0.8854700  0.5890600  0.3749800    0.00000       Uiso       1.00
     C1088          C  0.8179500  0.5921800  0.3950800    0.00000       Uiso       1.00
     H1089          H  0.9101200  0.6300100  0.2517700    0.00000       Uiso       1.00
     H1090          H  0.0237200  0.6543200  0.2111600    0.00000       Uiso       1.00
     H1091          H  0.1519200  0.6714600  0.2160500    0.00000       Uiso       1.00
     H1092          H  0.2692700  0.6552500  0.2558000    0.00000       Uiso       1.00
     H1093          H  0.3391200  0.6037300  0.3128400    0.00000       Uiso       1.00
     H1094          H  0.3412900  0.5443200  0.3851500    0.00000       Uiso       1.00
     H1095          H  0.6633400  0.6159400  0.4158700    0.00000       Uiso       1.00
     H1096          H  0.2220900  0.3881800  0.4035200    0.00000       Uiso       1.00
     H1097          H  0.2221300  0.3454200  0.4819400    0.00000       Uiso       1.00
     H1098          H  0.2534900  0.5337700  0.5338900    0.00000       Uiso       1.00
     H1099          H  0.2595600  0.5757000  0.4576400    0.00000       Uiso       1.00
     H1100          H  0.2030000  0.3597200  0.5609100    0.00000       Uiso       1.00
     H1101          H  0.0724900  0.2470900  0.3687400    0.00000       Uiso       1.00
     H1102          H  0.0928900  0.2540200  0.4508100    0.00000       Uiso       1.00
     H1103          H  0.0825200  0.3121700  0.5170800    0.00000       Uiso       1.00
     H1104          H  0.0733900  0.4169600  0.5549300    0.00000       Uiso       1.00
     H1105          H  0.0880000  0.5306800  0.5510200    0.00000       Uiso       1.00
     H1106          H  0.1257800  0.6235400  0.5045400    0.00000       Uiso       1.00
     H1107          H  0.8317900  0.2963800  0.2141000    0.00000       Uiso       1.00
     H1108          H  0.1773900  0.8275900  0.3264000    0.00000       Uiso       1.00
     H1109          H  0.8883300  0.3118700  0.7200400    0.00000       Uiso       1.00
     H1110          H  0.9637001  0.2696700  0.7825900    0.00000       Uiso       1.00
     H1111          H  0.1569200  0.2885800  0.7019900    0.00000       Uiso       1.00
     H1112          H  0.0815100  0.3316700  0.6391100    0.00000       Uiso       1.00
     H1113          H  0.3702200  0.8982000  0.9061000    0.00000       Uiso       1.00
     H1114          H  0.4033100  0.8411801  0.9752300    0.00000       Uiso       1.00
     H1115          H  0.4222300  0.0174500  0.0466700    0.00000       Uiso       1.00
     H1116          H  0.3803600  0.0764300  0.9778500    0.00000       Uiso       1.00
     H1117          H  0.3428100  0.9498999  0.0943800    0.00000       Uiso       1.00
     H1118          H  0.3217200  0.8747300  0.1569100    0.00000       Uiso       1.00
     H1119          H  0.4728200  0.7443200  0.0954500    0.00000       Uiso       1.00
     H1120          H  0.4795700  0.8120099  0.0291400    0.00000       Uiso       1.00
     H1121          H  0.8738600  0.8858700  0.7341600    0.00000       Uiso       1.00
     H1122          H  0.9620900  0.9148499  0.7957100    0.00000       Uiso       1.00
     H1123          H  0.1274100  0.9539600  0.6985000    0.00000       Uiso       1.00
     H1124          H  0.0411800  0.9239700  0.6377200    0.00000       Uiso       1.00
     H1125          H  0.0123800  0.9511500  0.8356700    0.00000       Uiso       1.00
     H1126          H  0.0914500  0.9557700  0.8999400    0.00000       Uiso       1.00
     H1127          H  0.2763600  0.9134700  0.8171800    0.00000       Uiso       1.00
     H1128          H  0.1964600  0.9159600  0.7487700    0.00000       Uiso       1.00
     H1129          H  0.0227300  0.6198200  0.3721200    0.00000       Uiso       1.00
     H1130          H  0.0376400  0.7174500  0.3300300    0.00000       Uiso       1.00
     H1131          H  0.2245200  0.7667200  0.4100400    0.00000       Uiso       1.00
     H1132          H  0.2116000  0.6647800  0.4521700    0.00000       Uiso       1.00
     H1133          H  0.7107700  0.5546900  0.3068300    0.00000       Uiso       1.00
     H1134          H  0.8321500  0.5590100  0.2685800    0.00000       Uiso       1.00
     H1135          H  0.9349400  0.5973700  0.3962500    0.00000       Uiso       1.00
     H1136          H  0.8156200  0.6050300  0.4316300    0.00000       Uiso       1.00
     B1137          B  0.5000000  0.6538900  0.5000000    0.00000       Uiso       1.00
     B1138          B  0.0000000  0.1538900  0.5000000    0.00000       Uiso       1.00
     B1139          B  0.0000000  0.6538900  0.0000000    0.00000       Uiso       1.00
     B1140          B  0.5000000  0.1538900  0.0000000    0.00000       Uiso       1.00
     B1141          B  0.0000000  0.1932900  0.0000000    0.00000       Uiso       1.00
     B1142          B  0.5000000  0.6932900  0.0000000    0.00000       Uiso       1.00
     B1143          B  0.5000000  0.1932900  0.5000000    0.00000       Uiso       1.00
     B1144          B  0.0000000  0.6932900  0.5000000    0.00000       Uiso       1.00
