data_COF-BTA-PDA
_audit_creation_date              0000-00-00
_audit_creation_method            'LanYouShi'
_symmetry_space_group_name_H-M    'P1'
_cell_length_a                    24.1779003
_cell_length_b                    24.1779995
_cell_length_c                    3.4000001
_cell_angle_alpha                 90.0000000
_cell_angle_beta                  90.0000000
_cell_angle_gamma                 59.9999008
loop_
_atom_site_label
_atom_site_type_symbol
_atom_site_fract_x
_atom_site_fract_y
_atom_site_fract_z
_atom_site_U_iso_or_equiv
_atom_site_adp_type
_atom_site_occupancy
        C1          C  0.4107910  0.3972450  1.4637860    0.00000       Uiso       1.00
        N2          N  0.3942670  0.4662690  1.4630949    0.00000       Uiso       1.00
        C3          C  0.4467230  0.4828300  1.4662540    0.00000       Uiso       1.00
        C4          C  0.4294630  0.5533490  1.4715950    0.00000       Uiso       1.00
        C5          C  0.4827880  0.5705230  1.4769450    0.00000       Uiso       1.00
        H6          H  0.4629260  0.3576280  1.4652801    0.00000       Uiso       1.00
        H7          H  0.3773990  0.5926630  1.4718831    0.00000       Uiso       1.00
        H8          H  0.4700500  0.6227870  1.4815540    0.00000       Uiso       1.00
        C9          C  0.5892270  0.6027710  1.4769230    0.00000       Uiso       1.00
       N10          N  0.6057200  0.5337470  1.4767730    0.00000       Uiso       1.00
       C11          C  0.5532730  0.5171650  1.4752090    0.00000       Uiso       1.00
       C12          C  0.5705430  0.4466310  1.4701639    0.00000       Uiso       1.00
       C13          C  0.5172090  0.4294630  1.4651500    0.00000       Uiso       1.00
       H14          H  0.5371040  0.6424230  1.4773200    0.00000       Uiso       1.00
       H15          H  0.6225970  0.4073190  1.4694231    0.00000       Uiso       1.00
       H16          H  0.5299420  0.3772020  1.4605269    0.00000       Uiso       1.00
       C17          C  0.1920160  0.4107330  1.4581000    0.00000       Uiso       1.00
       N18          N  0.1395150  0.3942100  1.4576350    0.00000       Uiso       1.00
       C19          C  0.0704990  0.4466640  1.4616940    0.00000       Uiso       1.00
       C20          C  0.0172420  0.4294020  1.4672600    0.00000       Uiso       1.00
       C21          C  0.9467450  0.4827260  1.4735270    0.00000       Uiso       1.00
       H22          H  0.1794990  0.4628670  1.4601060    0.00000       Uiso       1.00
       H23          H  0.0299910  0.3773380  1.4670360    0.00000       Uiso       1.00
       H24          H  0.9072201  0.4699870  1.4783030    0.00000       Uiso       1.00
       C25          C  0.8080580  0.5891640  1.4753230    0.00000       Uiso       1.00
       N26          N  0.8605900  0.6056570  1.4749469    0.00000       Uiso       1.00
       C27          C  0.9296181  0.5532110  1.4724830    0.00000       Uiso       1.00
       C28          C  0.9828809  0.5704820  1.4672140    0.00000       Uiso       1.00
       C29          C  0.0533800  0.5171500  1.4612820    0.00000       Uiso       1.00
       H30          H  0.8205290  0.5370420  1.4752090    0.00000       Uiso       1.00
       H31          H  0.9701390  0.6225360  1.4669840    0.00000       Uiso       1.00
       H32          H  0.0929080  0.5298840  1.4564919    0.00000       Uiso       1.00
       C33          C  0.3973020  0.1919570  1.4642260    0.00000       Uiso       1.00
       N34          N  0.4663260  0.1394570  1.4628599    0.00000       Uiso       1.00
       C35          C  0.4828880  0.0704410  1.4662430    0.00000       Uiso       1.00
       C36          C  0.5534090  0.0171810  1.4708920    0.00000       Uiso       1.00
       C37          C  0.5705850  0.9466811  1.4764670    0.00000       Uiso       1.00
       H38          H  0.3576850  0.1794400  1.4664010    0.00000       Uiso       1.00
       H39          H  0.5927240  0.0299310  1.4705030    0.00000       Uiso       1.00
       H40          H  0.6228501  0.9071549  1.4805630    0.00000       Uiso       1.00
       C41          C  0.6028340  0.8079940  1.4769120    0.00000       Uiso       1.00
       N42          N  0.5338090  0.8605260  1.4774370    0.00000       Uiso       1.00
       C43          C  0.5172270  0.9295540  1.4756490    0.00000       Uiso       1.00
       C44          C  0.4466900  0.9828190  1.4712970    0.00000       Uiso       1.00
       C45          C  0.4295210  0.0533220  1.4660569    0.00000       Uiso       1.00
       H46          H  0.6424850  0.8204660  1.4766290    0.00000       Uiso       1.00
       H47          H  0.4073790  0.9700770  1.4712330    0.00000       Uiso       1.00
       H48          H  0.3772580  0.0928510  1.4619480    0.00000       Uiso       1.00
       C49          C  0.6300279  0.6364060  1.4766400    0.00000       Uiso       1.00
       C50          C  0.6364690  0.7335590  1.4766349    0.00000       Uiso       1.00
       C51          C  0.7336220  0.6299650  1.4758830    0.00000       Uiso       1.00
       C52          C  0.5999570  0.7032310  1.4768879    0.00000       Uiso       1.00
       C53          C  0.7032939  0.6968050  1.4761320    0.00000       Uiso       1.00
       C54          C  0.6968680  0.5998940  1.4761370    0.00000       Uiso       1.00
       H55          H  0.7202360  0.5481800  1.4759450    0.00000       Uiso       1.00
       H56          H  0.5482430  0.7315760  1.4772770    0.00000       Uiso       1.00
       H57          H  0.7316400  0.7201730  1.4759361    0.00000       Uiso       1.00
       C58          C  0.3700210  0.3635780  1.4628650    0.00000       Uiso       1.00
       C59          C  0.3636350  0.2663950  1.4630740    0.00000       Uiso       1.00
       C60          C  0.2664530  0.3699630  1.4601740    0.00000       Uiso       1.00
       C61          C  0.4001210  0.2967510  1.4638970    0.00000       Uiso       1.00
       C62          C  0.2968090  0.3031210  1.4612120    0.00000       Uiso       1.00
       C63          C  0.3031790  0.4000630  1.4610040    0.00000       Uiso       1.00
       H64          H  0.2797890  0.4517770  1.4602031    0.00000       Uiso       1.00
       H65          H  0.4518350  0.2684270  1.4653370    0.00000       Uiso       1.00
       H66          H  0.2684850  0.2797310  1.4605720    0.00000       Uiso       1.00
