data_COF-JLU3
_audit_creation_date              0000-00-00
_audit_creation_method            'LanYouShi'
_symmetry_space_group_name_H-M    'P1'
_cell_length_a                    28.8679008
_cell_length_b                    6.8000002
_cell_length_c                    25.7479992
_cell_angle_alpha                 90.0000000
_cell_angle_beta                  63.5294991
_cell_angle_gamma                 90.0000000
loop_
_atom_site_label
_atom_site_type_symbol
_atom_site_fract_x
_atom_site_fract_y
_atom_site_fract_z
_atom_site_U_iso_or_equiv
_atom_site_adp_type
_atom_site_occupancy
        N1          N  0.5208210  0.7352940  0.5046940    0.00000       Uiso       1.00
        N2          N  0.4791790  0.7352940  0.4953060    0.00000       Uiso       1.00
        C3          C  0.5707470  0.7352940  0.4626670    0.00000       Uiso       1.00
        C4          C  0.4292530  0.7352940  0.5373330    0.00000       Uiso       1.00
        H5          H  0.5805250  0.7352940  0.4192120    0.00000       Uiso       1.00
        H6          H  0.4194750  0.7352940  0.5807880    0.00000       Uiso       1.00
        N7          N  0.4955640  0.6444300  0.9768441    0.00000       Uiso       1.00
        N8          N  0.5044360  0.6444300  0.0231560    0.00000       Uiso       1.00
        C9          C  0.5326790  0.6444300  0.9207440    0.00000       Uiso       1.00
       C10          C  0.4673210  0.6444300  0.0792560    0.00000       Uiso       1.00
       H11          H  0.5715160  0.6444300  0.9093770    0.00000       Uiso       1.00
       H12          H  0.4284840  0.6444300  0.0906230    0.00000       Uiso       1.00
       N13          N  0.9800970  0.7108940  0.5262430    0.00000       Uiso       1.00
       N14          N  0.0199030  0.7108940  0.4737570    0.00000       Uiso       1.00
       C15          C  0.9292651  0.7108940  0.5375320    0.00000       Uiso       1.00
       C16          C  0.0707350  0.7108940  0.4624680    0.00000       Uiso       1.00
       H17          H  0.9172550  0.7108930  0.5056050    0.00000       Uiso       1.00
       H18          H  0.0827450  0.7108930  0.4943950    0.00000       Uiso       1.00
       C19          C  0.4766330  0.6682390  0.8028900    0.00000       Uiso       1.00
       C20          C  0.5275050  0.6783340  0.7464410    0.00000       Uiso       1.00
       C21          C  0.5233670  0.6682390  0.1971100    0.00000       Uiso       1.00
       C22          C  0.4724950  0.6783340  0.2535590    0.00000       Uiso       1.00
       H23          H  0.5263810  0.6867410  0.7028130    0.00000       Uiso       1.00
       H24          H  0.4736190  0.6867410  0.2971870    0.00000       Uiso       1.00
       C25          C  0.8302751  0.6887490  0.7074550    0.00000       Uiso       1.00
       C26          C  0.7781171  0.6869060  0.7046449    0.00000       Uiso       1.00
       C27          C  0.1697250  0.6887490  0.2925450    0.00000       Uiso       1.00
       C28          C  0.2218830  0.6869060  0.2953550    0.00000       Uiso       1.00
       H29          H  0.7403720  0.6802730  0.7463630    0.00000       Uiso       1.00
       H30          H  0.2596280  0.6802730  0.2536370    0.00000       Uiso       1.00
       C31          C  0.7241150  0.7337980  0.4121990    0.00000       Uiso       1.00
       C32          C  0.7250710  0.7263550  0.4714280    0.00000       Uiso       1.00
       C33          C  0.2758850  0.7337980  0.5878010    0.00000       Uiso       1.00
       C34          C  0.2749290  0.7263550  0.5285720    0.00000       Uiso       1.00
       H35          H  0.7636310  0.7227401  0.4736490    0.00000       Uiso       1.00
       H36          H  0.2363690  0.7227401  0.5263510    0.00000       Uiso       1.00
       C37          C  0.6210120  0.7335240  0.4651180    0.00000       Uiso       1.00
       C38          C  0.6219360  0.7325090  0.5245240    0.00000       Uiso       1.00
       C39          C  0.3789880  0.7335240  0.5348820    0.00000       Uiso       1.00
       C40          C  0.3780640  0.7325090  0.4754760    0.00000       Uiso       1.00
       H41          H  0.5840530  0.7347350  0.5661440    0.00000       Uiso       1.00
       H42          H  0.4159470  0.7347350  0.4338560    0.00000       Uiso       1.00
       C43          C  0.8802760  0.7046790  0.5919020    0.00000       Uiso       1.00
       C44          C  0.8280870  0.7022040  0.5891030    0.00000       Uiso       1.00
       C45          C  0.1197240  0.7046790  0.4080980    0.00000       Uiso       1.00
       C46          C  0.1719130  0.7022040  0.4108970    0.00000       Uiso       1.00
       H47          H  0.8272470  0.7067360  0.5452770    0.00000       Uiso       1.00
       H48          H  0.1727530  0.7067360  0.4547230    0.00000       Uiso       1.00
       C49          C  0.5307140  0.6552929  0.8642670    0.00000       Uiso       1.00
       C50          C  0.5814570  0.6655400  0.8076810    0.00000       Uiso       1.00
       C51          C  0.4692860  0.6552929  0.1357330    0.00000       Uiso       1.00
       C52          C  0.4185430  0.6655400  0.1923190    0.00000       Uiso       1.00
       H53          H  0.6201980  0.6646690  0.8093920    0.00000       Uiso       1.00
       H54          H  0.3798020  0.6646690  0.1906080    0.00000       Uiso       1.00
       C55          C  0.6753500  0.7069091  0.5866540    0.00000       Uiso       1.00
       C56          C  0.6722270  0.7316450  0.4089210    0.00000       Uiso       1.00
       C57          C  0.6740100  0.7231520  0.5276350    0.00000       Uiso       1.00
       C58          C  0.6306760  0.6873270  0.6922080    0.00000       Uiso       1.00
       C59          C  0.4782060  0.6564130  0.8620250    0.00000       Uiso       1.00
       C60          C  0.5798750  0.6770640  0.7487780    0.00000       Uiso       1.00
       C61          C  0.7249500  0.6954190  0.6423500    0.00000       Uiso       1.00
       C62          C  0.8812901  0.7002370  0.6512330    0.00000       Uiso       1.00
       C63          C  0.7770309  0.6944320  0.6454120    0.00000       Uiso       1.00
       C64          C  0.7227980  0.7056750  0.5891700    0.00000       Uiso       1.00
       C65          C  0.6295610  0.6976720  0.6384790    0.00000       Uiso       1.00
       C66          C  0.6786160  0.6863081  0.6935620    0.00000       Uiso       1.00
       C67          C  0.3246500  0.7069091  0.4133460    0.00000       Uiso       1.00
       C68          C  0.3277730  0.7316450  0.5910790    0.00000       Uiso       1.00
       C69          C  0.3259900  0.7231520  0.4723650    0.00000       Uiso       1.00
       C70          C  0.3693240  0.6873270  0.3077920    0.00000       Uiso       1.00
       C71          C  0.5217930  0.6564130  0.1379750    0.00000       Uiso       1.00
       C72          C  0.4201250  0.6770640  0.2512220    0.00000       Uiso       1.00
       C73          C  0.2750500  0.6954190  0.3576500    0.00000       Uiso       1.00
       C74          C  0.1187100  0.7002370  0.3487670    0.00000       Uiso       1.00
       C75          C  0.2229690  0.6944320  0.3545880    0.00000       Uiso       1.00
       C76          C  0.2772020  0.7056750  0.4108300    0.00000       Uiso       1.00
       C77          C  0.3704390  0.6976720  0.3615210    0.00000       Uiso       1.00
       C78          C  0.3213840  0.6863081  0.3064380    0.00000       Uiso       1.00
       H79          H  0.5905200  0.6985010  0.6373760    0.00000       Uiso       1.00
       H80          H  0.6803680  0.6779560  0.7368700    0.00000       Uiso       1.00
       H81          H  0.7605310  0.7130939  0.5474640    0.00000       Uiso       1.00
       H82          H  0.4094800  0.6985010  0.3626240    0.00000       Uiso       1.00
       H83          H  0.3196320  0.6779560  0.2631300    0.00000       Uiso       1.00
       H84          H  0.2394690  0.7130939  0.4525360    0.00000       Uiso       1.00
       O85          O  0.6719430  0.7321930  0.3504760    0.00000       Uiso       1.00
       O86          O  0.4286680  0.6475480  0.9178000    0.00000       Uiso       1.00
       O87          O  0.9322090  0.7055200  0.6544820    0.00000       Uiso       1.00
       O88          O  0.3280570  0.7321930  0.6495240    0.00000       Uiso       1.00
       O89          O  0.5713320  0.6475480  0.0822000    0.00000       Uiso       1.00
       O90          O  0.0677910  0.7055200  0.3455180    0.00000       Uiso       1.00
       H91          H  0.7121100  0.7551150  0.3162150    0.00000       Uiso       1.00
       H92          H  0.4292360  0.7633700  0.9478840    0.00000       Uiso       1.00
       H93          H  0.9348719  0.8440460  0.6757940    0.00000       Uiso       1.00
       H94          H  0.2878900  0.7551150  0.6837850    0.00000       Uiso       1.00
       H95          H  0.5707641  0.7633700  0.0521160    0.00000       Uiso       1.00
       H96          H  0.0651280  0.8440460  0.3242060    0.00000       Uiso       1.00
       C97          C  0.8314770  0.6789440  0.7665390    0.00000       Uiso       1.00
       C98          C  0.7756270  0.6709230  0.8151570    0.00000       Uiso       1.00
       C99          C  0.8591030  0.8623260  0.7742050    0.00000       Uiso       1.00
      C100          C  0.8610150  0.4930790  0.7687280    0.00000       Uiso       1.00
      C101          C  0.1685230  0.6789440  0.2334610    0.00000       Uiso       1.00
      C102          C  0.2243730  0.6709230  0.1848430    0.00000       Uiso       1.00
      C103          C  0.1408970  0.8623260  0.2257950    0.00000       Uiso       1.00
      C104          C  0.1389850  0.4930790  0.2312720    0.00000       Uiso       1.00
      H105          H  0.7762520  0.6630520  0.8590639    0.00000       Uiso       1.00
      H106          H  0.7553890  0.5352510  0.8090311    0.00000       Uiso       1.00
      H107          H  0.7539200  0.8085280  0.8131740    0.00000       Uiso       1.00
      H108          H  0.9003510  0.8675690  0.7379631    0.00000       Uiso       1.00
      H109          H  0.8600400  0.8549950  0.8179569    0.00000       Uiso       1.00
      H110          H  0.8373540  0.9999310  0.7723140    0.00000       Uiso       1.00
      H111          H  0.8406429  0.3573770  0.7628580    0.00000       Uiso       1.00
      H112          H  0.8620520  0.4850800  0.8124191    0.00000       Uiso       1.00
      H113          H  0.9022200  0.4994830  0.7324120    0.00000       Uiso       1.00
      H114          H  0.2237480  0.6630520  0.1409360    0.00000       Uiso       1.00
      H115          H  0.2446110  0.5352510  0.1909690    0.00000       Uiso       1.00
      H116          H  0.2460800  0.8085280  0.1868260    0.00000       Uiso       1.00
      H117          H  0.0996490  0.8675690  0.2620370    0.00000       Uiso       1.00
      H118          H  0.1399600  0.8549950  0.1820430    0.00000       Uiso       1.00
      H119          H  0.1626460  0.9999310  0.2276860    0.00000       Uiso       1.00
      H120          H  0.1593570  0.3573770  0.2371420    0.00000       Uiso       1.00
      H121          H  0.1379480  0.4850800  0.1875810    0.00000       Uiso       1.00
      H122          H  0.0977790  0.4994830  0.2675880    0.00000       Uiso       1.00
      C123          C  0.4247400  0.6699800  0.7991690    0.00000       Uiso       1.00
      C124          C  0.3778220  0.6594460  0.8593481    0.00000       Uiso       1.00
      C125          C  0.4234610  0.4924430  0.7627080    0.00000       Uiso       1.00
      C126          C  0.4215660  0.8604141  0.7685660    0.00000       Uiso       1.00
      C127          C  0.5752600  0.6699800  0.2008310    0.00000       Uiso       1.00
      C128          C  0.6221780  0.6594460  0.1406520    0.00000       Uiso       1.00
      C129          C  0.5765390  0.4924430  0.2372920    0.00000       Uiso       1.00
      C130          C  0.5784340  0.8604141  0.2314340    0.00000       Uiso       1.00
      H131          H  0.3406140  0.6611590  0.8541840    0.00000       Uiso       1.00
      H132          H  0.3783780  0.7912751  0.8863930    0.00000       Uiso       1.00
      H133          H  0.3798341  0.5179760  0.8819849    0.00000       Uiso       1.00
      H134          H  0.4577190  0.5013810  0.7177760    0.00000       Uiso       1.00
      H135          H  0.3858260  0.4940420  0.7584041    0.00000       Uiso       1.00
      H136          H  0.4260050  0.3506350  0.7849170    0.00000       Uiso       1.00
      H137          H  0.4226820  0.9927780  0.7951630    0.00000       Uiso       1.00
      H138          H  0.3839240  0.8619570  0.7642790    0.00000       Uiso       1.00
      H139          H  0.4558310  0.8673110  0.7235960    0.00000       Uiso       1.00
      H140          H  0.6593860  0.6611590  0.1458160    0.00000       Uiso       1.00
      H141          H  0.6216220  0.7912751  0.1136070    0.00000       Uiso       1.00
      H142          H  0.6201660  0.5179760  0.1180150    0.00000       Uiso       1.00
      H143          H  0.5422809  0.5013810  0.2822240    0.00000       Uiso       1.00
      H144          H  0.6141740  0.4940420  0.2415960    0.00000       Uiso       1.00
      H145          H  0.5739951  0.3506350  0.2150830    0.00000       Uiso       1.00
      H146          H  0.5773180  0.9927780  0.2048370    0.00000       Uiso       1.00
      H147          H  0.6160760  0.8619570  0.2357210    0.00000       Uiso       1.00
      H148          H  0.5441690  0.8673110  0.2764040    0.00000       Uiso       1.00
      C149          C  0.7751240  0.7437400  0.3560290    0.00000       Uiso       1.00
      C150          C  0.8209339  0.7401139  0.3713030    0.00000       Uiso       1.00
      C151          C  0.7764960  0.9362300  0.3238790    0.00000       Uiso       1.00
      C152          C  0.7787960  0.5664910  0.3171760    0.00000       Uiso       1.00
      C153          C  0.2248760  0.7437400  0.6439710    0.00000       Uiso       1.00
      C154          C  0.1790660  0.7401139  0.6286970    0.00000       Uiso       1.00
      C155          C  0.2235040  0.9362300  0.6761210    0.00000       Uiso       1.00
      C156          C  0.2212040  0.5664910  0.6828240    0.00000       Uiso       1.00
      H157          H  0.8587720  0.7484850  0.3297630    0.00000       Uiso       1.00
      H158          H  0.8197850  0.5979860  0.3953260    0.00000       Uiso       1.00
      H159          H  0.8179680  0.8712230  0.4002040    0.00000       Uiso       1.00
      H160          H  0.7424990  0.9391279  0.3126380    0.00000       Uiso       1.00
      H161          H  0.8143460  0.9451840  0.2823700    0.00000       Uiso       1.00
      H162          H  0.7735830  1.0667410  0.3529680    0.00000       Uiso       1.00
      H163          H  0.7775740  0.4245470  0.3413210    0.00000       Uiso       1.00
      H164          H  0.8166610  0.5741650  0.2756620    0.00000       Uiso       1.00
      H165          H  0.7448260  0.5696660  0.3058880    0.00000       Uiso       1.00
      H166          H  0.1412280  0.7484850  0.6702370    0.00000       Uiso       1.00
      H167          H  0.1802150  0.5979860  0.6046740    0.00000       Uiso       1.00
      H168          H  0.1820320  0.8712230  0.5997960    0.00000       Uiso       1.00
      H169          H  0.2575000  0.9391279  0.6873620    0.00000       Uiso       1.00
      H170          H  0.1856540  0.9451840  0.7176300    0.00000       Uiso       1.00
      H171          H  0.2264170  1.0667410  0.6470320    0.00000       Uiso       1.00
      H172          H  0.2224260  0.4245470  0.6586790    0.00000       Uiso       1.00
      H173          H  0.1833390  0.5741650  0.7243380    0.00000       Uiso       1.00
      H174          H  0.2551730  0.5696660  0.6941120    0.00000       Uiso       1.00
