data_COF-LZU8
_audit_creation_date              0000-00-00
_audit_creation_method            'LanYouShi'
_symmetry_space_group_name_H-M    'P1'
_cell_length_a                    30.5230999
_cell_length_b                    30.5230999
_cell_length_c                    4.0929999
_cell_angle_alpha                 90.0000000
_cell_angle_beta                  90.0000000
_cell_angle_gamma                 120.0000000
loop_
_atom_site_label
_atom_site_type_symbol
_atom_site_fract_x
_atom_site_fract_y
_atom_site_fract_z
_atom_site_U_iso_or_equiv
_atom_site_adp_type
_atom_site_occupancy
        C1          C  0.3855870  0.6811041  0.5000000    0.00000       Uiso       1.00
        C2          C  0.3188970  0.7044840  0.5000000    0.00000       Uiso       1.00
        C3          C  0.2955170  0.6144140  0.5000000    0.00000       Uiso       1.00
        C4          C  0.3704660  0.7180080  0.5000000    0.00000       Uiso       1.00
        C5          C  0.2819920  0.6524590  0.5000000    0.00000       Uiso       1.00
        C6          C  0.3475420  0.6295350  0.5000000    0.00000       Uiso       1.00
        H7          H  0.3975480  0.7556060  0.5000000    0.00000       Uiso       1.00
        H8          H  0.2443950  0.6419430  0.5000000    0.00000       Uiso       1.00
        H9          H  0.3580580  0.6024520  0.5000000    0.00000       Uiso       1.00
       C10          C  0.9477470  0.9855620  0.5000000    0.00000       Uiso       1.00
       C11          C  0.9628700  0.9486590  0.5000000    0.00000       Uiso       1.00
       C12          C  0.0144390  0.9621860  0.5000000    0.00000       Uiso       1.00
       C13          C  0.0378150  0.0522540  0.5000000    0.00000       Uiso       1.00
       C14          C  0.0513420  0.0142110  0.5000000    0.00000       Uiso       1.00
       C15          C  0.9857900  0.0371310  0.5000000    0.00000       Uiso       1.00
       H16          H  0.9752730  0.0642120  0.5000000    0.00000       Uiso       1.00
       H17          H  0.9357890  0.9110610  0.5000000    0.00000       Uiso       1.00
       H18          H  0.0889400  0.0247280  0.5000000    0.00000       Uiso       1.00
       C19          C  0.7202610  0.8499130  0.5000000    0.00000       Uiso       1.00
       C20          C  0.6825250  0.7980070  0.5000000    0.00000       Uiso       1.00
       C21          C  0.6301410  0.7810230  0.5000000    0.00000       Uiso       1.00
       C22          C  0.6130730  0.8167490  0.5000000    0.00000       Uiso       1.00
       C23          C  0.6508090  0.8686550  0.5000000    0.00000       Uiso       1.00
       C24          C  0.7031930  0.8856391  0.5000000    0.00000       Uiso       1.00
       C25          C  0.5611790  0.8035440  0.5000000    0.00000       Uiso       1.00
       C26          C  0.7721550  0.8631180  0.5000000    0.00000       Uiso       1.00
       C27          C  0.1500880  0.8703489  0.5000000    0.00000       Uiso       1.00
       C28          C  0.2019940  0.8845190  0.5000000    0.00000       Uiso       1.00
       C29          C  0.2189780  0.8491190  0.5000000    0.00000       Uiso       1.00
       C30          C  0.1832520  0.7963250  0.5000000    0.00000       Uiso       1.00
       C31          C  0.1313450  0.7821540  0.5000000    0.00000       Uiso       1.00
       C32          C  0.1143620  0.8175540  0.5000000    0.00000       Uiso       1.00
       C33          C  0.1964570  0.7576360  0.5000000    0.00000       Uiso       1.00
       C34          C  0.1368820  0.9090370  0.5000000    0.00000       Uiso       1.00
       C35          C  0.1296520  0.2797400  0.5000000    0.00000       Uiso       1.00
       C36          C  0.1154820  0.3174760  0.5000000    0.00000       Uiso       1.00
       C37          C  0.1508820  0.3698590  0.5000000    0.00000       Uiso       1.00
       C38          C  0.2036760  0.3869280  0.5000000    0.00000       Uiso       1.00
       C39          C  0.2178460  0.3491920  0.5000000    0.00000       Uiso       1.00
       C40          C  0.1824460  0.2968080  0.5000000    0.00000       Uiso       1.00
       C41          C  0.2423650  0.4388210  0.5000000    0.00000       Uiso       1.00
       C42          C  0.0909630  0.2278460  0.5000000    0.00000       Uiso       1.00
       O43          O  0.7372700  0.9363340  0.5000000    0.00000       Uiso       1.00
       O44          O  0.5960640  0.7303290  0.5000000    0.00000       Uiso       1.00
       O45          O  0.0636670  0.8009370  0.5000000    0.00000       Uiso       1.00
       O46          O  0.2696720  0.8657361  0.5000000    0.00000       Uiso       1.00
       O47          O  0.1990640  0.2627310  0.5000000    0.00000       Uiso       1.00
       O48          O  0.1342640  0.4039370  0.5000000    0.00000       Uiso       1.00
       C49          C  0.7305090  0.9795449  0.5000000    0.00000       Uiso       1.00
       C50          C  0.6028250  0.6871170  0.5000000    0.00000       Uiso       1.00
       C51          C  0.5507370  0.6385800  0.5000000    0.00000       Uiso       1.00
       C52          C  0.0204560  0.7509650  0.5000000    0.00000       Uiso       1.00
       C53          C  0.3128840  0.9157080  0.5000000    0.00000       Uiso       1.00
       C54          C  0.3614210  0.9121580  0.5000000    0.00000       Uiso       1.00
       C55          C  0.2490360  0.2694910  0.5000000    0.00000       Uiso       1.00
       C56          C  0.2454850  0.2174040  0.5000000    0.00000       Uiso       1.00
       C57          C  0.0842920  0.3971760  0.5000000    0.00000       Uiso       1.00
       C58          C  0.0878430  0.4492640  0.5000000    0.00000       Uiso       1.00
       C59          C  0.7825970  0.0280820  0.5000000    0.00000       Uiso       1.00
       C60          C  0.9719190  0.7545150  0.5000000    0.00000       Uiso       1.00
       N61          N  0.5222770  0.7552520  0.5000000    0.00000       Uiso       1.00
       N62          N  0.8110570  0.9114110  0.5000000    0.00000       Uiso       1.00
       N63          N  0.4749260  0.7427150  0.5000000    0.00000       Uiso       1.00
       N64          N  0.8584080  0.9239480  0.5000000    0.00000       Uiso       1.00
       N65          N  0.2447490  0.7670270  0.5000000    0.00000       Uiso       1.00
       N66          N  0.0885900  0.8996470  0.5000000    0.00000       Uiso       1.00
       N67          N  0.2572850  0.7322110  0.5000000    0.00000       Uiso       1.00
       N68          N  0.0760530  0.9344620  0.5000000    0.00000       Uiso       1.00
       N69          N  0.2329740  0.4777230  0.5000000    0.00000       Uiso       1.00
       N70          N  0.1003540  0.1889440  0.5000000    0.00000       Uiso       1.00
       N71          N  0.2677900  0.5250750  0.5000000    0.00000       Uiso       1.00
       N72          N  0.0655390  0.1415920  0.5000000    0.00000       Uiso       1.00
       C73          C  0.4369270  0.6942600  0.5000000    0.00000       Uiso       1.00
       C74          C  0.3057410  0.7426680  0.5000000    0.00000       Uiso       1.00
       C75          C  0.2573330  0.5630740  0.5000000    0.00000       Uiso       1.00
       C76          C  0.8964070  0.9724040  0.5000000    0.00000       Uiso       1.00
       C77          C  0.0275970  0.9240030  0.5000000    0.00000       Uiso       1.00
       C78          C  0.0759970  0.1035940  0.5000000    0.00000       Uiso       1.00
       H79          H  0.6932300  0.7712220  0.5000000    0.00000       Uiso       1.00
       H80          H  0.2287790  0.9220090  0.5000000    0.00000       Uiso       1.00
       H81          H  0.0779920  0.3067710  0.5000000    0.00000       Uiso       1.00
       H82          H  0.6401040  0.8954400  0.5000000    0.00000       Uiso       1.00
       H83          H  0.1045610  0.7446650  0.5000000    0.00000       Uiso       1.00
       H84          H  0.2553360  0.3598970  0.5000000    0.00000       Uiso       1.00
       H85          H  0.4460870  0.6661930  0.5000000    0.00000       Uiso       1.00
       H86          H  0.3338080  0.7798951  0.5000000    0.00000       Uiso       1.00
       H87          H  0.2201060  0.5539140  0.5000000    0.00000       Uiso       1.00
       H88          H  0.8872450  0.0004690  0.5000000    0.00000       Uiso       1.00
       H89          H  0.9995310  0.8867760  0.5000000    0.00000       Uiso       1.00
       H90          H  0.1132250  0.1127560  0.5000000    0.00000       Uiso       1.00
       H91          H  0.8032560  0.9382690  0.5000000    0.00000       Uiso       1.00
       H92          H  0.5300770  0.7283930  0.5000000    0.00000       Uiso       1.00
       H93          H  0.7093810  0.9790010  0.7158590    0.00000       Uiso       1.00
       H94          H  0.7093810  0.9790010  0.2841410    0.00000       Uiso       1.00
       H95          H  0.6239530  0.6876610  0.7158590    0.00000       Uiso       1.00
       H96          H  0.6239530  0.6876610  0.2841410    0.00000       Uiso       1.00
       H97          H  0.5292630  0.6374730  0.7151820    0.00000       Uiso       1.00
       H98          H  0.5292630  0.6374730  0.2848180    0.00000       Uiso       1.00
       C99          C  0.5572220  0.5916820  0.5000000    0.00000       Uiso       1.00
      S100          S  0.4912980  0.5442480  0.5000000    0.00000       Uiso       1.00
      C101          C  0.5042600  0.4940450  0.4194830    0.00000       Uiso       1.00
      C102          C  0.4555830  0.4436000  0.3803480    0.00000       Uiso       1.00
      H103          H  0.5751220  0.5898430  0.7402020    0.00000       Uiso       1.00
      H104          H  0.5827660  0.5944620  0.2883730    0.00000       Uiso       1.00
      H105          H  0.5273900  0.4913770  0.6291350    0.00000       Uiso       1.00
      H106          H  0.5270640  0.5029180  0.1838340    0.00000       Uiso       1.00
      H107          H  0.4323450  0.4444860  0.1652090    0.00000       Uiso       1.00
      H108          H  0.4324020  0.4320320  0.6153270    0.00000       Uiso       1.00
      H109          H  0.4721230  0.4186010  0.3277830    0.00000       Uiso       1.00
      H110          H  0.0617320  0.8649880  0.5000000    0.00000       Uiso       1.00
      H111          H  0.2716080  0.8016850  0.5000000    0.00000       Uiso       1.00
      H112          H  0.0209990  0.7303810  0.7158590    0.00000       Uiso       1.00
      H113          H  0.0209990  0.7303810  0.2841410    0.00000       Uiso       1.00
      H114          H  0.3123400  0.9362930  0.7158590    0.00000       Uiso       1.00
      H115          H  0.3123400  0.9362930  0.2841410    0.00000       Uiso       1.00
      H116          H  0.3625270  0.8917910  0.7151820    0.00000       Uiso       1.00
      H117          H  0.3625270  0.8917910  0.2848180    0.00000       Uiso       1.00
      C118          C  0.4083180  0.9655410  0.5000000    0.00000       Uiso       1.00
      S119          S  0.4557530  0.9470510  0.5000000    0.00000       Uiso       1.00
      C120          C  0.5059560  1.0102150  0.4194830    0.00000       Uiso       1.00
      C121          C  0.5564010  1.0119840  0.3803480    0.00000       Uiso       1.00
      H122          H  0.4101580  0.9852800  0.7402020    0.00000       Uiso       1.00
      H123          H  0.4055380  0.9883040  0.2883730    0.00000       Uiso       1.00
      H124          H  0.5086240  1.0360140  0.6291350    0.00000       Uiso       1.00
      H125          H  0.4970830  1.0241470  0.1838340    0.00000       Uiso       1.00
      H126          H  0.5555150  0.9878600  0.1652090    0.00000       Uiso       1.00
      H127          H  0.5679690  1.0003710  0.6153270    0.00000       Uiso       1.00
      H128          H  0.5814000  1.0535229  0.3277830    0.00000       Uiso       1.00
      H129          H  0.1350130  0.1967440  0.5000000    0.00000       Uiso       1.00
      H130          H  0.1983160  0.4699230  0.5000000    0.00000       Uiso       1.00
      H131          H  0.2696200  0.2906200  0.7158590    0.00000       Uiso       1.00
      H132          H  0.2696200  0.2906200  0.2841410    0.00000       Uiso       1.00
      H133          H  0.2251180  0.1959300  0.2848180    0.00000       Uiso       1.00
      H134          H  0.2251180  0.1959300  0.7151820    0.00000       Uiso       1.00
      H135          H  0.0637080  0.3760480  0.7158590    0.00000       Uiso       1.00
      H136          H  0.0637080  0.3760480  0.2841410    0.00000       Uiso       1.00
      H137          H  0.1082100  0.4707370  0.7151820    0.00000       Uiso       1.00
      H138          H  0.1082100  0.4707370  0.2848180    0.00000       Uiso       1.00
      C139          C  0.2988680  0.2238890  0.5000000    0.00000       Uiso       1.00
      S140          S  0.2803780  0.1579640  0.5000000    0.00000       Uiso       1.00
      C141          C  0.3435420  0.1709260  0.4194830    0.00000       Uiso       1.00
      C142          C  0.3453110  0.1222490  0.3803480    0.00000       Uiso       1.00
      H143          H  0.3186070  0.2417880  0.7402020    0.00000       Uiso       1.00
      H144          H  0.3216310  0.2494320  0.2883730    0.00000       Uiso       1.00
      H145          H  0.3693410  0.1940570  0.6291350    0.00000       Uiso       1.00
      H146          H  0.3574740  0.1937300  0.1838340    0.00000       Uiso       1.00
      H147          H  0.3211870  0.0990110  0.1652090    0.00000       Uiso       1.00
      H148          H  0.3336980  0.0990680  0.6153270    0.00000       Uiso       1.00
      H149          H  0.3868500  0.1387890  0.3277830    0.00000       Uiso       1.00
      C150          C  0.0344600  0.4427780  0.5000000    0.00000       Uiso       1.00
      S151          S  0.0529500  0.5087030  0.5000000    0.00000       Uiso       1.00
      C152          C -0.0102150  0.4957410  0.4194830    0.00000       Uiso       1.00
      C153          C -0.0119830  0.5444170  0.3803480    0.00000       Uiso       1.00
      H154          H  0.0147210  0.4248790  0.7402020    0.00000       Uiso       1.00
      H155          H  0.0116970  0.4172350  0.2883730    0.00000       Uiso       1.00
      H156          H -0.0360130  0.4726100  0.6291350    0.00000       Uiso       1.00
      H157          H -0.0241460  0.4729370  0.1838340    0.00000       Uiso       1.00
      H158          H  0.0121410  0.5676550  0.1652090    0.00000       Uiso       1.00
      H159          H -0.0003700  0.5675990  0.6153270    0.00000       Uiso       1.00
      H160          H -0.0535230  0.5278780  0.3277830    0.00000       Uiso       1.00
      H161          H  0.8040710  0.0291880  0.2848180    0.00000       Uiso       1.00
      H162          H  0.8040710  0.0291880  0.7151820    0.00000       Uiso       1.00
      C163          C  0.7761120  0.0749790  0.5000000    0.00000       Uiso       1.00
      S164          S  0.8420370  0.1224140  0.5000000    0.00000       Uiso       1.00
      C165          C  0.8290750  0.1726160  0.4194830    0.00000       Uiso       1.00
      C166          C  0.8777510  0.2230620  0.3803480    0.00000       Uiso       1.00
      H167          H  0.7582120  0.0768190  0.7402020    0.00000       Uiso       1.00
      H168          H  0.7505690  0.0721990  0.2883730    0.00000       Uiso       1.00
      H169          H  0.8059440  0.1752850  0.6291350    0.00000       Uiso       1.00
      H170          H  0.8062710  0.1637440  0.1838340    0.00000       Uiso       1.00
      H171          H  0.9009890  0.2221750  0.1652090    0.00000       Uiso       1.00
      H172          H  0.9009330  0.2346290  0.6153270    0.00000       Uiso       1.00
      H173          H  0.8612120  0.2480610  0.3277830    0.00000       Uiso       1.00
      H174          H  0.9708130  0.7748830  0.2848180    0.00000       Uiso       1.00
      H175          H  0.9708130  0.7748830  0.7151820    0.00000       Uiso       1.00
      C176          C  0.9250220  0.7011330  0.5000000    0.00000       Uiso       1.00
      S177          S  0.8775870  0.7196230  0.5000000    0.00000       Uiso       1.00
      C178          C  0.8273840  0.6564580  0.4194830    0.00000       Uiso       1.00
      C179          C  0.7769390  0.6546901  0.3803480    0.00000       Uiso       1.00
      H180          H  0.9231820  0.6813940  0.7402020    0.00000       Uiso       1.00
      H181          H  0.9278010  0.6783690  0.2883730    0.00000       Uiso       1.00
      H182          H  0.8247159  0.6306599  0.6291350    0.00000       Uiso       1.00
      H183          H  0.8362570  0.6425270  0.1838340    0.00000       Uiso       1.00
      H184          H  0.7778249  0.6788139  0.1652090    0.00000       Uiso       1.00
      H185          H  0.7653710  0.6663029  0.6153270    0.00000       Uiso       1.00
      H186          H  0.7519400  0.6131510  0.3277830    0.00000       Uiso       1.00
      O187          O  0.7840120  0.8291660  0.5000000    0.00000       Uiso       1.00
      O188          O  0.5493220  0.8374971  0.5000000    0.00000       Uiso       1.00
      O189          O  0.1708350  0.9548480  0.5000000    0.00000       Uiso       1.00
      O190          O  0.1625040  0.7118260  0.5000000    0.00000       Uiso       1.00
      O191          O  0.0451530  0.2159880  0.5000000    0.00000       Uiso       1.00
      O192          O  0.2881750  0.4506790  0.5000000    0.00000       Uiso       1.00
