data_COF-SDU1
_audit_creation_date              0000-00-00
_audit_creation_method            'LanYouShi'
_symmetry_space_group_name_H-M    'P1'
_cell_length_a                    49.5558014
_cell_length_b                    49.5558014
_cell_length_c                    3.4000001
_cell_angle_alpha                 90.0000000
_cell_angle_beta                  90.0000000
_cell_angle_gamma                 120.0000000
loop_
_atom_site_label
_atom_site_type_symbol
_atom_site_fract_x
_atom_site_fract_y
_atom_site_fract_z
_atom_site_U_iso_or_equiv
_atom_site_adp_type
_atom_site_occupancy
        N1          N  0.1292530  0.5606810  0.5000000    0.00000       Uiso       1.00
        N2          N  0.4393200  0.5685720  0.5000000    0.00000       Uiso       1.00
        N3          N  0.4314280  0.8707480  0.5000000    0.00000       Uiso       1.00
        N4          N  0.8707480  0.4393200  0.5000000    0.00000       Uiso       1.00
        N5          N  0.5606810  0.4314280  0.5000000    0.00000       Uiso       1.00
        N6          N  0.5685720  0.1292530  0.5000000    0.00000       Uiso       1.00
        N7          N  0.0086600  0.5133800  0.5000000    0.00000       Uiso       1.00
        N8          N  0.4866210  0.4952810  0.5000000    0.00000       Uiso       1.00
        N9          N  0.5047200  0.9913410  0.5000000    0.00000       Uiso       1.00
       C10          C  0.9913410  0.4866210  0.5000000    0.00000       Uiso       1.00
       C11          C  0.5133800  0.5047200  0.5000000    0.00000       Uiso       1.00
       C12          C  0.4952810  0.0086600  0.5000000    0.00000       Uiso       1.00
       H13          H  1.0015180  1.4704610  0.5000000    0.00000       Uiso       1.00
       H14          H  0.5295401  1.5310581  0.5000000    0.00000       Uiso       1.00
       H15          H  0.4689430  0.9984830  0.5000000    0.00000       Uiso       1.00
       C16          C  0.1505350  0.5906390  0.5000000    0.00000       Uiso       1.00
       C17          C  0.0988270  0.5493990  0.5000000    0.00000       Uiso       1.00
       C18          C  0.0863120  0.5668240  0.5000000    0.00000       Uiso       1.00
       C19          C  0.0566200  0.5546330  0.5000000    0.00000       Uiso       1.00
       C20          C  0.0389130  0.5250700  0.5000000    0.00000       Uiso       1.00
       C21          C  0.0511540  0.5075900  0.5000000    0.00000       Uiso       1.00
       C22          C  0.0808010  0.5196730  0.5000000    0.00000       Uiso       1.00
       C23          C  0.4093610  0.5598960  0.5000000    0.00000       Uiso       1.00
       C24          C  0.4506020  0.5494290  0.5000000    0.00000       Uiso       1.00
       C25          C  0.4331760  0.5194890  0.5000000    0.00000       Uiso       1.00
       C26          C  0.4453670  0.5019870  0.5000000    0.00000       Uiso       1.00
       C27          C  0.4749310  0.5138430  0.5000000    0.00000       Uiso       1.00
       C28          C  0.4924100  0.5435650  0.5000000    0.00000       Uiso       1.00
       C29          C  0.4803270  0.5611280  0.5000000    0.00000       Uiso       1.00
       C30          C  0.4401040  0.8494650  0.5000000    0.00000       Uiso       1.00
       C31          C  0.4505720  0.9011730  0.5000000    0.00000       Uiso       1.00
       C32          C  0.4805120  0.9136880  0.5000000    0.00000       Uiso       1.00
       C33          C  0.4980130  0.9433800  0.5000000    0.00000       Uiso       1.00
       C34          C  0.4861570  0.9610880  0.5000000    0.00000       Uiso       1.00
       C35          C  0.4564360  0.9488459  0.5000000    0.00000       Uiso       1.00
       C36          C  0.4388720  0.9191990  0.5000000    0.00000       Uiso       1.00
       C37          C  0.8494650  0.4093610  0.5000000    0.00000       Uiso       1.00
       C38          C  0.9011730  0.4506020  0.5000000    0.00000       Uiso       1.00
       C39          C  0.9136880  0.4331760  0.5000000    0.00000       Uiso       1.00
       C40          C  0.9433800  0.4453670  0.5000000    0.00000       Uiso       1.00
       C41          C  0.9610880  0.4749310  0.5000000    0.00000       Uiso       1.00
       C42          C  0.9488460  0.4924100  0.5000000    0.00000       Uiso       1.00
       C43          C  0.9191990  0.4803270  0.5000000    0.00000       Uiso       1.00
       C44          C  0.5906390  0.4401040  0.5000000    0.00000       Uiso       1.00
       C45          C  0.5493990  0.4505720  0.5000000    0.00000       Uiso       1.00
       C46          C  0.5668240  0.4805120  0.5000000    0.00000       Uiso       1.00
       C47          C  0.5546330  0.4980130  0.5000000    0.00000       Uiso       1.00
       C48          C  0.5250700  0.4861570  0.5000000    0.00000       Uiso       1.00
       C49          C  0.5075900  0.4564360  0.5000000    0.00000       Uiso       1.00
       C50          C  0.5196730  0.4388720  0.5000000    0.00000       Uiso       1.00
       C51          C  0.5598960  0.1505350  0.5000000    0.00000       Uiso       1.00
       C52          C  0.5494290  0.0988270  0.5000000    0.00000       Uiso       1.00
       C53          C  0.5194890  0.0863120  0.5000000    0.00000       Uiso       1.00
       C54          C  0.5019870  0.0566200  0.5000000    0.00000       Uiso       1.00
       C55          C  0.5138430  0.0389130  0.5000000    0.00000       Uiso       1.00
       C56          C  0.5435650  0.0511540  0.5000000    0.00000       Uiso       1.00
       C57          C  0.5611280  0.0808010  0.5000000    0.00000       Uiso       1.00
       H58          H  0.1429530  0.6056310  0.5000000    0.00000       Uiso       1.00
       H59          H  0.0988400  0.5897140  0.5000000    0.00000       Uiso       1.00
       H60          H  0.0898020  0.5057830  0.5000000    0.00000       Uiso       1.00
       H61          H  0.0472220  0.5681710  0.5000000    0.00000       Uiso       1.00
       H62          H  0.0376690  0.4846570  0.5000000    0.00000       Uiso       1.00
       H63          H  0.3943690  0.5373230  0.5000000    0.00000       Uiso       1.00
       H64          H  0.4102860  0.5091260  0.5000000    0.00000       Uiso       1.00
       H65          H  0.4942180  0.5840200  0.5000000    0.00000       Uiso       1.00
       H66          H  0.4318290  0.4790510  0.5000000    0.00000       Uiso       1.00
       H67          H  0.5153430  0.5530120  0.5000000    0.00000       Uiso       1.00
       H68          H  0.4626780  0.8570470  0.5000000    0.00000       Uiso       1.00
       H69          H  0.4908750  0.9011610  0.5000000    0.00000       Uiso       1.00
       H70          H  0.4159810  0.9101980  0.5000000    0.00000       Uiso       1.00
       H71          H  0.5209490  0.9527780  0.5000000    0.00000       Uiso       1.00
       H72          H  0.4469880  0.9623310  0.5000000    0.00000       Uiso       1.00
       H73          H  0.8570470  0.3943690  0.5000000    0.00000       Uiso       1.00
       H74          H  0.9011610  0.4102860  0.5000000    0.00000       Uiso       1.00
       H75          H  0.9101980  0.4942180  0.5000000    0.00000       Uiso       1.00
       H76          H  0.9527780  0.4318290  0.5000000    0.00000       Uiso       1.00
       H77          H  0.9623310  0.5153430  0.5000000    0.00000       Uiso       1.00
       H78          H  0.6056310  0.4626780  0.5000000    0.00000       Uiso       1.00
       H79          H  0.5897140  0.4908750  0.5000000    0.00000       Uiso       1.00
       H80          H  0.5057830  0.4159810  0.5000000    0.00000       Uiso       1.00
       H81          H  0.5681720  0.5209490  0.5000000    0.00000       Uiso       1.00
       H82          H  0.4846570  0.4469880  0.5000000    0.00000       Uiso       1.00
       H83          H  0.5373230  0.1429530  0.5000000    0.00000       Uiso       1.00
       H84          H  0.5091260  0.0988400  0.5000000    0.00000       Uiso       1.00
       H85          H  0.5840200  0.0898020  0.5000000    0.00000       Uiso       1.00
       H86          H  0.4790510  0.0472220  0.5000000    0.00000       Uiso       1.00
       H87          H  0.5530120  0.0376690  0.5000000    0.00000       Uiso       1.00
       C88          C  0.3627800  0.6920180  0.5000000    0.00000       Uiso       1.00
       C89          C  0.3079820  0.6707620  0.5000000    0.00000       Uiso       1.00
       C90          C  0.3292390  0.6372210  0.5000000    0.00000       Uiso       1.00
       C91          C  0.6372210  0.3079820  0.5000000    0.00000       Uiso       1.00
       C92          C  0.6920180  0.3292390  0.5000000    0.00000       Uiso       1.00
       C93          C  0.6707620  0.3627800  0.5000000    0.00000       Uiso       1.00
       N94          N  0.3583830  0.6626090  0.5000000    0.00000       Uiso       1.00
       N95          N  0.3373920  0.6957740  0.5000000    0.00000       Uiso       1.00
       N96          N  0.3042260  0.6416180  0.5000000    0.00000       Uiso       1.00
       N97          N  0.6416180  0.3373920  0.5000000    0.00000       Uiso       1.00
       N98          N  0.6626090  0.3042260  0.5000000    0.00000       Uiso       1.00
       N99          N  0.6957740  0.3583830  0.5000000    0.00000       Uiso       1.00
      O100          O  0.3937070  0.7171930  0.5000000    0.00000       Uiso       1.00
      O101          O  0.2828070  0.6765150  0.5000000    0.00000       Uiso       1.00
      O102          O  0.3234860  0.6062930  0.5000000    0.00000       Uiso       1.00
      O103          O  0.6062930  0.2828070  0.5000000    0.00000       Uiso       1.00
      O104          O  0.7171930  0.3234860  0.5000000    0.00000       Uiso       1.00
      O105          O  0.6765150  0.3937070  0.5000000    0.00000       Uiso       1.00
      C106          C  0.4029510  0.7493091  0.5000000    0.00000       Uiso       1.00
      C107          C  0.2506910  0.6536420  0.5000000    0.00000       Uiso       1.00
      C108          C  0.3463580  0.5970490  0.5000000    0.00000       Uiso       1.00
      C109          C  0.2378760  0.6206500  0.5000000    0.00000       Uiso       1.00
      C110          C  0.3793500  0.6172270  0.5000000    0.00000       Uiso       1.00
      C111          C  0.3827740  0.7621239  0.5000000    0.00000       Uiso       1.00
      C112          C  0.2053070  0.6005010  0.5000000    0.00000       Uiso       1.00
      C113          C  0.3995000  0.6048060  0.5000000    0.00000       Uiso       1.00
      C114          C  0.3951940  0.7946941  0.5000000    0.00000       Uiso       1.00
      C115          C  0.1847890  0.6125090  0.5000000    0.00000       Uiso       1.00
      C116          C  0.3874910  0.5722800  0.5000000    0.00000       Uiso       1.00
      C117          C  0.4277200  0.8152120  0.5000000    0.00000       Uiso       1.00
      C118          C  0.1973350  0.6451600  0.5000000    0.00000       Uiso       1.00
      C119          C  0.3548400  0.5521750  0.5000000    0.00000       Uiso       1.00
      C120          C  0.4478260  0.8026660  0.5000000    0.00000       Uiso       1.00
      C121          C  0.2298400  0.6653050  0.5000000    0.00000       Uiso       1.00
      C122          C  0.3346950  0.5645350  0.5000000    0.00000       Uiso       1.00
      C123          C  0.4354660  0.7701610  0.5000000    0.00000       Uiso       1.00
      C124          C  0.5970490  0.2506910  0.5000000    0.00000       Uiso       1.00
      C125          C  0.7493090  0.3463580  0.5000000    0.00000       Uiso       1.00
      C126          C  0.6536420  0.4029510  0.5000000    0.00000       Uiso       1.00
      C127          C  0.7621240  0.3793500  0.5000000    0.00000       Uiso       1.00
      C128          C  0.6206500  0.3827740  0.5000000    0.00000       Uiso       1.00
      C129          C  0.6172270  0.2378760  0.5000000    0.00000       Uiso       1.00
      C130          C  0.7946930  0.3995000  0.5000000    0.00000       Uiso       1.00
      C131          C  0.6005010  0.3951940  0.5000000    0.00000       Uiso       1.00
      C132          C  0.6048060  0.2053070  0.5000000    0.00000       Uiso       1.00
      C133          C  0.8152120  0.3874910  0.5000000    0.00000       Uiso       1.00
      C134          C  0.6125090  0.4277200  0.5000000    0.00000       Uiso       1.00
      C135          C  0.5722800  0.1847890  0.5000000    0.00000       Uiso       1.00
      C136          C  0.8026660  0.3548400  0.5000000    0.00000       Uiso       1.00
      C137          C  0.6451600  0.4478260  0.5000000    0.00000       Uiso       1.00
      C138          C  0.5521750  0.1973350  0.5000000    0.00000       Uiso       1.00
      C139          C  0.7701610  0.3346950  0.5000000    0.00000       Uiso       1.00
      C140          C  0.6653050  0.4354660  0.5000000    0.00000       Uiso       1.00
      C141          C  0.5645350  0.2298400  0.5000000    0.00000       Uiso       1.00
      H142          H  0.2516020  0.6093950  0.5000000    0.00000       Uiso       1.00
      H143          H  0.3906050  0.6422070  0.5000000    0.00000       Uiso       1.00
      H144          H  0.3577940  0.7483990  0.5000000    0.00000       Uiso       1.00
      H145          H  0.1961130  0.5754930  0.5000000    0.00000       Uiso       1.00
      H146          H  0.4245070  0.6206200  0.5000000    0.00000       Uiso       1.00
      H147          H  0.3793800  0.8038870  0.5000000    0.00000       Uiso       1.00
      H148          H  0.1821700  0.6550950  0.5000000    0.00000       Uiso       1.00
      H149          H  0.3449060  0.5270750  0.5000000    0.00000       Uiso       1.00
      H150          H  0.4729250  0.8178300  0.5000000    0.00000       Uiso       1.00
      H151          H  0.2389710  0.6902910  0.5000000    0.00000       Uiso       1.00
      H152          H  0.3097090  0.5486800  0.5000000    0.00000       Uiso       1.00
      H153          H  0.4513210  0.7610300  0.5000000    0.00000       Uiso       1.00
      H154          H  0.7483990  0.3906050  0.5000000    0.00000       Uiso       1.00
      H155          H  0.6093950  0.3577940  0.5000000    0.00000       Uiso       1.00
      H156          H  0.6422070  0.2516020  0.5000000    0.00000       Uiso       1.00
      H157          H  0.8038870  0.4245070  0.5000000    0.00000       Uiso       1.00
      H158          H  0.5754930  0.3793800  0.5000000    0.00000       Uiso       1.00
      H159          H  0.6206200  0.1961130  0.5000000    0.00000       Uiso       1.00
      H160          H  0.8178300  0.3449060  0.5000000    0.00000       Uiso       1.00
      H161          H  0.6550950  0.4729250  0.5000000    0.00000       Uiso       1.00
      H162          H  0.5270750  0.1821700  0.5000000    0.00000       Uiso       1.00
      H163          H  0.7610300  0.3097090  0.5000000    0.00000       Uiso       1.00
      H164          H  0.6902910  0.4513210  0.5000000    0.00000       Uiso       1.00
      H165          H  0.5486800  0.2389710  0.5000000    0.00000       Uiso       1.00
