data_CoPc-PorDBA
_audit_creation_date              0000-00-00
_audit_creation_method            'LanYouShi'
_symmetry_space_group_name_H-M    'P1'
_cell_length_a                    35.7402000
_cell_length_b                    6.7121000
_cell_length_c                    35.8134995
_cell_angle_alpha                 90.0000000
_cell_angle_beta                  90.0003967
_cell_angle_gamma                 90.0000000
loop_
_atom_site_label
_atom_site_type_symbol
_atom_site_fract_x
_atom_site_fract_y
_atom_site_fract_z
_atom_site_U_iso_or_equiv
_atom_site_adp_type
_atom_site_occupancy
        C1          C  0.6825900  0.5000010  0.4805540    0.00000       Uiso       1.00
        C2          C  0.6490050  0.5000010  0.5402910    0.00000       Uiso       1.00
        C3          C  0.6153450  0.5000010  0.5196280    0.00000       Uiso       1.00
        C4          C  0.5780380  0.5000010  0.5308090    0.00000       Uiso       1.00
        C5          C  0.3174110  0.5000010  0.5194460    0.00000       Uiso       1.00
        C6          C  0.3509960  0.5000010  0.4597090    0.00000       Uiso       1.00
        C7          C  0.3846560  0.5000010  0.4803720    0.00000       Uiso       1.00
        C8          C  0.4219620  0.5000010  0.4691910    0.00000       Uiso       1.00
        O9          O  0.7177730  0.5000010  0.5332390    0.00000       Uiso       1.00
       O10          O  0.2822280  0.5000010  0.4667610    0.00000       Uiso       1.00
       H11          H  0.6493840  0.5000010  0.5687860    0.00000       Uiso       1.00
       H12          H  0.3506170  0.5000010  0.4312140    0.00000       Uiso       1.00
       C13          C  0.4805140  0.5000010  0.3167660    0.00000       Uiso       1.00
       C14          C  0.5404060  0.5000010  0.3502620    0.00000       Uiso       1.00
       C15          C  0.5197250  0.5000010  0.3838510    0.00000       Uiso       1.00
       C16          C  0.5310770  0.5000010  0.4210590    0.00000       Uiso       1.00
       C17          C  0.5194870  0.5000010  0.6832340    0.00000       Uiso       1.00
       C18          C  0.4595940  0.5000010  0.6497380    0.00000       Uiso       1.00
       C19          C  0.4802760  0.5000010  0.6161490    0.00000       Uiso       1.00
       C20          C  0.4689240  0.5000010  0.5789410    0.00000       Uiso       1.00
       O21          O  0.5333060  0.5000010  0.2816560    0.00000       Uiso       1.00
       O22          O  0.4666950  0.5000010  0.7183440    0.00000       Uiso       1.00
       H23          H  0.5689570  0.5000010  0.3498850    0.00000       Uiso       1.00
       H24          H  0.4310440  0.5000010  0.6501160    0.00000       Uiso       1.00
       N25          N  0.5664530  0.5000010  0.5666290    0.00000       Uiso       1.00
       N26          N  0.4335480  0.5000010  0.4333710    0.00000       Uiso       1.00
       C27          C  0.6825560  0.5000010  0.5197960    0.00000       Uiso       1.00
       C28          C  0.6490740  0.5000010  0.4600040    0.00000       Uiso       1.00
       C29          C  0.6153810  0.5000010  0.4806080    0.00000       Uiso       1.00
       C30          C  0.5780980  0.5000010  0.4693540    0.00000       Uiso       1.00
       C31          C  0.3174450  0.5000010  0.4802040    0.00000       Uiso       1.00
       C32          C  0.3509270  0.5000010  0.5399960    0.00000       Uiso       1.00
       C33          C  0.3846200  0.5000010  0.5193920    0.00000       Uiso       1.00
       C34          C  0.4219020  0.5000010  0.5306460    0.00000       Uiso       1.00
       O35          O  0.7178280  0.5000010  0.4671630    0.00000       Uiso       1.00
       O36          O  0.2821730  0.5000010  0.5328370    0.00000       Uiso       1.00
       H37          H  0.6495040  0.5000010  0.4315100    0.00000       Uiso       1.00
       H38          H  0.3504970  0.5000010  0.5684900    0.00000       Uiso       1.00
       C39          C  0.4801600  0.5000010  0.6831990    0.00000       Uiso       1.00
       C40          C  0.5401100  0.5000010  0.6498100    0.00000       Uiso       1.00
       C41          C  0.5194890  0.5000010  0.6161860    0.00000       Uiso       1.00
       C42          C  0.5309130  0.5000010  0.5790010    0.00000       Uiso       1.00
       C43          C  0.5198400  0.5000010  0.3168010    0.00000       Uiso       1.00
       C44          C  0.4598910  0.5000010  0.3501900    0.00000       Uiso       1.00
       C45          C  0.4805120  0.5000010  0.3838140    0.00000       Uiso       1.00
       C46          C  0.4690870  0.5000010  0.4209990    0.00000       Uiso       1.00
       O47          O  0.5328980  0.5000010  0.7184010    0.00000       Uiso       1.00
       O48          O  0.4671030  0.5000010  0.2815990    0.00000       Uiso       1.00
       H49          H  0.5686590  0.5000010  0.6502400    0.00000       Uiso       1.00
       H50          H  0.4313420  0.5000010  0.3497600    0.00000       Uiso       1.00
       N51          N  0.5665900  0.5000010  0.4335090    0.00000       Uiso       1.00
       N52          N  0.4334110  0.5000010  0.5664910    0.00000       Uiso       1.00
       B53          B  0.7408810  0.5000010  0.5002210    0.00000       Uiso       1.00
       B54          B  0.2591200  0.5000010  0.4997790    0.00000       Uiso       1.00
       N55          N  0.5562710  0.5000010  0.5000590    0.00000       Uiso       1.00
       N56          N  0.4437300  0.5000010  0.4999410    0.00000       Uiso       1.00
       B57          B  0.5002250  0.5000010  0.2585890    0.00000       Uiso       1.00
       B58          B  0.4997760  0.5000010  0.7414110    0.00000       Uiso       1.00
       N59          N  0.5000610  0.5000010  0.4420330    0.00000       Uiso       1.00
       N60          N  0.4999390  0.5000010  0.5579670    0.00000       Uiso       1.00
       H61          H  0.4999640  0.5000010  0.5310480    0.00000       Uiso       1.00
       H62          H  0.5000370  0.5000010  0.4689520    0.00000       Uiso       1.00
       N63          N  0.5411860  0.5000010  0.9571050    0.00000       Uiso       1.00
       N64          N  0.4588150  0.5000010  0.0428950    0.00000       Uiso       1.00
       H65          H  0.5215840  0.5000010  0.9758161    0.00000       Uiso       1.00
       H66          H  0.4784170  0.5000010  0.0241840    0.00000       Uiso       1.00
       C67          C  0.5779320  0.5000010  0.9650229    0.00000       Uiso       1.00
       C68          C  0.4220690  0.5000010  0.0349770    0.00000       Uiso       1.00
       C69          C  0.5968740  0.5000010  0.9311470    0.00000       Uiso       1.00
       C70          C  0.4031270  0.5000010  0.0688530    0.00000       Uiso       1.00
       C71          C  0.5348700  0.5000010  0.9199910    0.00000       Uiso       1.00
       C72          C  0.4651310  0.5000010  0.0800090    0.00000       Uiso       1.00
       C73          C  0.5701700  0.5000010  0.9031870    0.00000       Uiso       1.00
       C74          C  0.4298310  0.5000010  0.0968130    0.00000       Uiso       1.00
       H75          H  0.6252130  0.5000010  0.9274000    0.00000       Uiso       1.00
       H76          H  0.3747880  0.5000010  0.0726000    0.00000       Uiso       1.00
       H77          H  0.5756890  0.5000010  0.8751930    0.00000       Uiso       1.00
       H78          H  0.4243120  0.5000010  0.1248070    0.00000       Uiso       1.00
       N79          N  0.5403960  0.5000010  0.0420980    0.00000       Uiso       1.00
       N80          N  0.4596050  0.5000010  0.9579020    0.00000       Uiso       1.00
       C81          C  0.5774390  0.5000010  0.0346980    0.00000       Uiso       1.00
       C82          C  0.4225610  0.5000010  0.9653020    0.00000       Uiso       1.00
       C83          C  0.5966120  0.5000010  0.0684430    0.00000       Uiso       1.00
       C84          C  0.4033880  0.5000010  0.9315570    0.00000       Uiso       1.00
       C85          C  0.4652230  0.5000010  0.9204999    0.00000       Uiso       1.00
       C86          C  0.5347780  0.5000010  0.0795000    0.00000       Uiso       1.00
       C87          C  0.4299630  0.5000010  0.9036100    0.00000       Uiso       1.00
       C88          C  0.5700380  0.5000010  0.0963900    0.00000       Uiso       1.00
       H89          H  0.6249730  0.5000010  0.0721050    0.00000       Uiso       1.00
       H90          H  0.3750280  0.5000010  0.9278950    0.00000       Uiso       1.00
       C91          C  0.5954380  0.5000010  0.9999579    0.00000       Uiso       1.00
       C92          C  0.4045630  0.5000010  0.0000420    0.00000       Uiso       1.00
       H93          H  0.4243900  0.5000010  0.8756150    0.00000       Uiso       1.00
       H94          H  0.5756110  0.5000010  0.1243850    0.00000       Uiso       1.00
       C95          C  0.4999310  0.5000010  0.9014950    0.00000       Uiso       1.00
       C96          C  0.5000700  0.5000010  0.0985050    0.00000       Uiso       1.00
       C97          C  0.4998270  0.5000010  0.8620930    0.00000       Uiso       1.00
       C98          C  0.5001740  0.5000010  0.1379070    0.00000       Uiso       1.00
       C99          C  0.4997930  0.3184970  0.8421710    0.00000       Uiso       1.00
      C100          C  0.5002070  0.3184970  0.1578290    0.00000       Uiso       1.00
      C101          C  0.5002070  0.6815050  0.1578290    0.00000       Uiso       1.00
      C102          C  0.4997930  0.6815050  0.8421710    0.00000       Uiso       1.00
      C103          C  0.9012930  0.5000010  0.5000670    0.00000       Uiso       1.00
      C104          C  0.0987080  0.5000010  0.4999330    0.00000       Uiso       1.00
      C105          C  0.8618110  0.5000010  0.5001700    0.00000       Uiso       1.00
      C106          C  0.1381900  0.5000010  0.4998300    0.00000       Uiso       1.00
      C107          C  0.8418480  0.3184970  0.5002030    0.00000       Uiso       1.00
      C108          C  0.1581530  0.3184970  0.4997970    0.00000       Uiso       1.00
      C109          C  0.1581530  0.6815050  0.4997970    0.00000       Uiso       1.00
      C110          C  0.8418480  0.6815050  0.5002030    0.00000       Uiso       1.00
      H111          H  0.4997890  0.1857570  0.8562120    0.00000       Uiso       1.00
      H112          H  0.5002110  0.1857570  0.1437890    0.00000       Uiso       1.00
      H113          H  0.5002110  0.8142450  0.1437890    0.00000       Uiso       1.00
      H114          H  0.4997890  0.8142450  0.8562120    0.00000       Uiso       1.00
      C115          C  0.4997620  0.3185240  0.8028700    0.00000       Uiso       1.00
      C116          C  0.5002390  0.3185240  0.1971300    0.00000       Uiso       1.00
      C117          C  0.5002390  0.6814780  0.1971300    0.00000       Uiso       1.00
      C118          C  0.4997620  0.6814780  0.8028700    0.00000       Uiso       1.00
      H119          H  0.4997400  0.1858200  0.7888220    0.00000       Uiso       1.00
      H120          H  0.5002610  0.1858200  0.2111780    0.00000       Uiso       1.00
      H121          H  0.5002610  0.8141830  0.2111780    0.00000       Uiso       1.00
      H122          H  0.4997400  0.8141830  0.7888220    0.00000       Uiso       1.00
      C123          C  0.4997590  0.5000010  0.7829500    0.00000       Uiso       1.00
      C124          C  0.5002420  0.5000010  0.2170500    0.00000       Uiso       1.00
      H125          H  0.6240630  0.5000010  0.0000890    0.00000       Uiso       1.00
      H126          H  0.3759370  0.5000010  0.9999111    0.00000       Uiso       1.00
      N127          N  0.9570170  0.5000010  0.4588980    0.00000       Uiso       1.00
      N128          N  0.0429830  0.5000010  0.5411020    0.00000       Uiso       1.00
      H129          H  0.9757670  0.5000010  0.4784610    0.00000       Uiso       1.00
      H130          H  0.0242340  0.5000010  0.5215390    0.00000       Uiso       1.00
      C131          C  0.9649520  0.5000010  0.4222270    0.00000       Uiso       1.00
      C132          C  0.0350490  0.5000010  0.5777730    0.00000       Uiso       1.00
      C133          C  0.9310070  0.5000010  0.4033230    0.00000       Uiso       1.00
      C134          C  0.0689940  0.5000010  0.5966770    0.00000       Uiso       1.00
      C135          C  0.9198280  0.5000010  0.4652000    0.00000       Uiso       1.00
      C136          C  0.0801730  0.5000010  0.5348000    0.00000       Uiso       1.00
      C137          C  0.9029890  0.5000010  0.4299710    0.00000       Uiso       1.00
      C138          C  0.0970110  0.5000010  0.5700290    0.00000       Uiso       1.00
      H139          H  0.9272529  0.5000010  0.3750420    0.00000       Uiso       1.00
      H140          H  0.0727480  0.5000010  0.6249580    0.00000       Uiso       1.00
      H141          H  0.8749380  0.5000010  0.4244630    0.00000       Uiso       1.00
      H142          H  0.1250630  0.5000010  0.5755370    0.00000       Uiso       1.00
      N143          N  0.0421850  0.5000010  0.4596880    0.00000       Uiso       1.00
      N144          N  0.9578150  0.5000010  0.5403120    0.00000       Uiso       1.00
      C145          C  0.0347710  0.5000010  0.4227210    0.00000       Uiso       1.00
      C146          C  0.9652299  0.5000010  0.5772800    0.00000       Uiso       1.00
      C147          C  0.0685850  0.5000010  0.4035870    0.00000       Uiso       1.00
      C148          C  0.9314160  0.5000010  0.5964130    0.00000       Uiso       1.00
      C149          C  0.9203371  0.5000010  0.5347050    0.00000       Uiso       1.00
      C150          C  0.0796640  0.5000010  0.4652960    0.00000       Uiso       1.00
      C151          C  0.9034120  0.5000010  0.5698920    0.00000       Uiso       1.00
      C152          C  0.0965880  0.5000010  0.4301080    0.00000       Uiso       1.00
      H153          H  0.0722550  0.5000010  0.3752850    0.00000       Uiso       1.00
      H154          H  0.9277460  0.5000010  0.6247150    0.00000       Uiso       1.00
      C155          C  0.9999600  0.5000010  0.4047590    0.00000       Uiso       1.00
      C156          C  0.0000410  0.5000010  0.5952410    0.00000       Uiso       1.00
      H157          H  0.8753600  0.5000010  0.5754520    0.00000       Uiso       1.00
      H158          H  0.1246410  0.5000010  0.4245480    0.00000       Uiso       1.00
      H159          H  0.8559170  0.1857580  0.5002070    0.00000       Uiso       1.00
      H160          H  0.1440840  0.1857580  0.4997930    0.00000       Uiso       1.00
      H161          H  0.1440840  0.8142450  0.4997930    0.00000       Uiso       1.00
      H162          H  0.8559170  0.8142450  0.5002070    0.00000       Uiso       1.00
      C163          C  0.8024660  0.3185240  0.5002350    0.00000       Uiso       1.00
      C164          C  0.1975350  0.3185240  0.4997650    0.00000       Uiso       1.00
      C165          C  0.1975350  0.6814780  0.4997650    0.00000       Uiso       1.00
      C166          C  0.8024660  0.6814780  0.5002350    0.00000       Uiso       1.00
      H167          H  0.7883890  0.1858190  0.5002560    0.00000       Uiso       1.00
      H168          H  0.2116120  0.1858190  0.4997440    0.00000       Uiso       1.00
      H169          H  0.2116120  0.8141830  0.4997440    0.00000       Uiso       1.00
      H170          H  0.7883890  0.8141830  0.5002560    0.00000       Uiso       1.00
      C171          C  0.7825050  0.5000010  0.5002380    0.00000       Uiso       1.00
      C172          C  0.2174960  0.5000010  0.4997620    0.00000       Uiso       1.00
      H173          H  0.0000910  0.5000010  0.3761910    0.00000       Uiso       1.00
      H174          H  0.9999090  0.5000010  0.6238090    0.00000       Uiso       1.00
