data_CTC-COF
_audit_creation_date              0000-00-00
_audit_creation_method            'LanYouShi'
_symmetry_space_group_name_H-M    'P1'
_cell_length_a                    25.0645008
_cell_length_b                    25.0645008
_cell_length_c                    4.2989001
_cell_angle_alpha                 90.0000000
_cell_angle_beta                  90.0000000
_cell_angle_gamma                 120.0000000
loop_
_atom_site_label
_atom_site_type_symbol
_atom_site_fract_x
_atom_site_fract_y
_atom_site_fract_z
_atom_site_U_iso_or_equiv
_atom_site_adp_type
_atom_site_occupancy
        C1          C  0.5563800  0.3882600 -0.7959500    0.00000       Uiso       1.00
        C2          C  0.5474800  0.3403800 -0.9846901    0.00000       Uiso       1.00
        C3          C  0.5962500  0.3477500 -1.1729800    0.00000       Uiso       1.00
        C4          C  0.4638800  0.4402100 -0.1075000    0.00000       Uiso       1.00
        O5          O  0.5168500  0.3917600 -0.5913800    0.00000       Uiso       1.00
        H6          H  0.5031500  0.2973500 -0.9887200    0.00000       Uiso       1.00
        H7          H  0.4356200  0.3930400 -0.1947200    0.00000       Uiso       1.00
        C8          C  0.6117400  0.1681200 -0.7959500    0.00000       Uiso       1.00
        C9          C  0.6596200  0.2071000 -0.9846901    0.00000       Uiso       1.00
       C10          C  0.6522500  0.2485000 -1.1729800    0.00000       Uiso       1.00
       C11          C  0.5597900  0.0236700 -0.1075000    0.00000       Uiso       1.00
       O12          O  0.6082400  0.1250900 -0.5913800    0.00000       Uiso       1.00
       H13          H  0.7026500  0.2058000 -0.9887200    0.00000       Uiso       1.00
       H14          H  0.6069600  0.0425800 -0.1947200    0.00000       Uiso       1.00
       C15          C  0.8318800  0.4436200 -0.7959500    0.00000       Uiso       1.00
       C16          C  0.7929000  0.4525200 -0.9846901    0.00000       Uiso       1.00
       C17          C  0.7515000  0.4037500 -1.1729800    0.00000       Uiso       1.00
       C18          C  0.9763300  0.5361200 -0.1075000    0.00000       Uiso       1.00
       O19          O  0.8749100  0.4831500 -0.5913800    0.00000       Uiso       1.00
       H20          H  0.7942000  0.4968500 -0.9887200    0.00000       Uiso       1.00
       H21          H  0.9574200  0.5643800 -0.1947200    0.00000       Uiso       1.00
       C22          C  0.3882600  0.5563800  0.7959500    0.00000       Uiso       1.00
       C23          C  0.3403800  0.5474800  0.9846901    0.00000       Uiso       1.00
       C24          C  0.3477500  0.5962500  1.1729800    0.00000       Uiso       1.00
       C25          C  0.4402100  0.4638800  0.1075000    0.00000       Uiso       1.00
       O26          O  0.3917600  0.5168500  0.5913800    0.00000       Uiso       1.00
       H27          H  0.2973500  0.5031500  0.9887200    0.00000       Uiso       1.00
       H28          H  0.3930400  0.4356200  0.1947200    0.00000       Uiso       1.00
       C29          C  0.1681200  0.6117400  0.7959500    0.00000       Uiso       1.00
       C30          C  0.2071000  0.6596200  0.9846901    0.00000       Uiso       1.00
       C31          C  0.2485000  0.6522500  1.1729800    0.00000       Uiso       1.00
       C32          C  0.0236700  0.5597900  0.1075000    0.00000       Uiso       1.00
       O33          O  0.1250900  0.6082400  0.5913800    0.00000       Uiso       1.00
       H34          H  0.2058000  0.7026500  0.9887200    0.00000       Uiso       1.00
       H35          H  0.0425800  0.6069600  0.1947200    0.00000       Uiso       1.00
       C36          C  0.4436200  0.8318800  0.7959500    0.00000       Uiso       1.00
       C37          C  0.4525200  0.7929000  0.9846901    0.00000       Uiso       1.00
       C38          C  0.4037500  0.7515000  1.1729800    0.00000       Uiso       1.00
       C39          C  0.5361200  0.9763300  0.1075000    0.00000       Uiso       1.00
       O40          O  0.4831500  0.8749099  0.5913800    0.00000       Uiso       1.00
       H41          H  0.4968500  0.7942000  0.9887200    0.00000       Uiso       1.00
       H42          H  0.5643800  0.9574200  0.1947200    0.00000       Uiso       1.00
       C43          C  0.4436200  0.6117400  0.7959500    0.00000       Uiso       1.00
       C44          C  0.4525200  0.6596200  0.9846901    0.00000       Uiso       1.00
       C45          C  0.4037500  0.6522500  1.1729800    0.00000       Uiso       1.00
       C46          C  0.5361200  0.5597900  0.1075000    0.00000       Uiso       1.00
       O47          O  0.4831500  0.6082400  0.5913800    0.00000       Uiso       1.00
       H48          H  0.4968500  0.7026500  0.9887200    0.00000       Uiso       1.00
       H49          H  0.5643800  0.6069600  0.1947200    0.00000       Uiso       1.00
       C50          C  0.3882600  0.8318800  0.7959500    0.00000       Uiso       1.00
       C51          C  0.3403800  0.7929000  0.9846901    0.00000       Uiso       1.00
       C52          C  0.3477500  0.7515000  1.1729800    0.00000       Uiso       1.00
       C53          C  0.4402100  0.9763300  0.1075000    0.00000       Uiso       1.00
       O54          O  0.3917600  0.8749099  0.5913800    0.00000       Uiso       1.00
       H55          H  0.2973500  0.7942000  0.9887200    0.00000       Uiso       1.00
       H56          H  0.3930400  0.9574200  0.1947200    0.00000       Uiso       1.00
       C57          C  0.1681200  0.5563800  0.7959500    0.00000       Uiso       1.00
       C58          C  0.2071000  0.5474800  0.9846901    0.00000       Uiso       1.00
       C59          C  0.2485000  0.5962500  1.1729800    0.00000       Uiso       1.00
       C60          C  0.0236700  0.4638800  0.1075000    0.00000       Uiso       1.00
       O61          O  0.1250900  0.5168500  0.5913800    0.00000       Uiso       1.00
       H62          H  0.2058000  0.5031500  0.9887200    0.00000       Uiso       1.00
       H63          H  0.0425800  0.4356200  0.1947200    0.00000       Uiso       1.00
       C64          C  0.6117400  0.4436200 -0.7959500    0.00000       Uiso       1.00
       C65          C  0.6596200  0.4525200 -0.9846901    0.00000       Uiso       1.00
       C66          C  0.6522500  0.4037500 -1.1729800    0.00000       Uiso       1.00
       C67          C  0.5597900  0.5361200 -0.1075000    0.00000       Uiso       1.00
       O68          O  0.6082400  0.4831500 -0.5913800    0.00000       Uiso       1.00
       H69          H  0.7026500  0.4968500 -0.9887200    0.00000       Uiso       1.00
       H70          H  0.6069600  0.5643800 -0.1947200    0.00000       Uiso       1.00
       C71          C  0.8318800  0.3882600 -0.7959500    0.00000       Uiso       1.00
       C72          C  0.7929000  0.3403800 -0.9846901    0.00000       Uiso       1.00
       C73          C  0.7515000  0.3477500 -1.1729800    0.00000       Uiso       1.00
       C74          C  0.9763300  0.4402100 -0.1075000    0.00000       Uiso       1.00
       O75          O  0.8749100  0.3917600 -0.5913800    0.00000       Uiso       1.00
       H76          H  0.7942000  0.2973500 -0.9887200    0.00000       Uiso       1.00
       H77          H  0.9574200  0.3930400 -0.1947200    0.00000       Uiso       1.00
       C78          C  0.5563800  0.1681200 -0.7959500    0.00000       Uiso       1.00
       C79          C  0.5474800  0.2071000 -0.9846901    0.00000       Uiso       1.00
       C80          C  0.5962500  0.2485000 -1.1729800    0.00000       Uiso       1.00
       C81          C  0.4638800  0.0236700 -0.1075000    0.00000       Uiso       1.00
       O82          O  0.5168500  0.1250900 -0.5913800    0.00000       Uiso       1.00
       H83          H  0.5031500  0.2058000 -0.9887200    0.00000       Uiso       1.00
       H84          H  0.4356200  0.0425800 -0.1947200    0.00000       Uiso       1.00
       C85          C  0.5863500  0.2931750 -1.3616199    0.00000       Uiso       1.00
       H86          H  0.5384700  0.2692350 -1.4496200    0.00000       Uiso       1.00
       H87          H  0.6151200  0.3075600 -1.5727100    0.00000       Uiso       1.00
       C88          C  0.7068250  0.2931750 -1.3616199    0.00000       Uiso       1.00
       H89          H  0.7307650  0.2692350 -1.4496200    0.00000       Uiso       1.00
       H90          H  0.6924400  0.3075600 -1.5727100    0.00000       Uiso       1.00
       C91          C  0.7068250  0.4136500 -1.3616199    0.00000       Uiso       1.00
       H92          H  0.7307650  0.4615300 -1.4496200    0.00000       Uiso       1.00
       H93          H  0.6924400  0.3848800 -1.5727100    0.00000       Uiso       1.00
       C94          C  0.2931750  0.5863500  1.3616199    0.00000       Uiso       1.00
       H95          H  0.2692350  0.5384700  1.4496200    0.00000       Uiso       1.00
       H96          H  0.3075600  0.6151200  1.5727100    0.00000       Uiso       1.00
       C97          C  0.2931750  0.7068250  1.3616199    0.00000       Uiso       1.00
       H98          H  0.2692350  0.7307650  1.4496200    0.00000       Uiso       1.00
       H99          H  0.3075600  0.6924400  1.5727100    0.00000       Uiso       1.00
      C100          C  0.4136500  0.7068250  1.3616199    0.00000       Uiso       1.00
      H101          H  0.4615300  0.7307650  1.4496200    0.00000       Uiso       1.00
      H102          H  0.3848800  0.6924400  1.5727100    0.00000       Uiso       1.00
      C103          C  0.5240000  0.4760000 -0.2185500    0.00000       Uiso       1.00
      B104          B  0.5494300  0.4505700 -0.4637600    0.00000       Uiso       1.00
      C105          C  0.5240000  0.0480000 -0.2185500    0.00000       Uiso       1.00
      B106          B  0.5494300  0.0988600 -0.4637600    0.00000       Uiso       1.00
      C107          C  0.9520000  0.4760000 -0.2185500    0.00000       Uiso       1.00
      B108          B  0.9011400  0.4505700 -0.4637600    0.00000       Uiso       1.00
      C109          C  0.4760000  0.5240000  0.2185500    0.00000       Uiso       1.00
      B110          B  0.4505700  0.5494300  0.4637600    0.00000       Uiso       1.00
      C111          C  0.0480000  0.5240000  0.2185500    0.00000       Uiso       1.00
      B112          B  0.0988600  0.5494300  0.4637600    0.00000       Uiso       1.00
      C113          C  0.4760000  0.9520000  0.2185500    0.00000       Uiso       1.00
      B114          B  0.4505700  0.9011400  0.4637600    0.00000       Uiso       1.00
