data_3D-Py-COF-2P
_audit_creation_date              0000-00-00
_audit_creation_method            'LanYouShi'
_symmetry_space_group_name_H-M    'P1'
_cell_length_a                    24.8910007
_cell_length_b                    27.1821995
_cell_length_c                    32.5284004
_cell_angle_alpha                 90.0000000
_cell_angle_beta                  90.0000000
_cell_angle_gamma                 90.0000000
loop_
_atom_site_label
_atom_site_type_symbol
_atom_site_fract_x
_atom_site_fract_y
_atom_site_fract_z
_atom_site_U_iso_or_equiv
_atom_site_adp_type
_atom_site_occupancy
        H1          H  0.5000000  0.7703099  0.5914200    0.00000       Uiso       1.00
        H2          H  0.5000000  0.5981500  0.6342400    0.00000       Uiso       1.00
        H3          H  0.5000000  0.6584100  0.6836700    0.00000       Uiso       1.00
        H4          H  0.5000000  0.7504700  0.7059200    0.00000       Uiso       1.00
        H5          H  0.5000000  0.8856400  0.6217300    0.00000       Uiso       1.00
        H6          H  0.5000000  0.9650599  0.6467700    0.00000       Uiso       1.00
        H7          H  0.5000000  0.9105000  0.7719400    0.00000       Uiso       1.00
        H8          H  0.5000000  0.1734800  0.7434600    0.00000       Uiso       1.00
        C9          C  0.5000000  0.5536500  0.4616800    0.00000       Uiso       1.00
       C10          C  0.5000000  0.6068200  0.4606600    0.00000       Uiso       1.00
       C11          C  0.5000000  0.6443500  0.4227700    0.00000       Uiso       1.00
       C12          C  0.5000000  0.7319500  0.3994300    0.00000       Uiso       1.00
       C13          C  0.5000000  0.7192800  0.3581300    0.00000       Uiso       1.00
       C14          C  0.5000000  0.7589201  0.3265900    0.00000       Uiso       1.00
       N15          N  0.5000000  0.8039900  0.3398300    0.00000       Uiso       1.00
       C16          C  0.5000000  0.8507000  0.3196800    0.00000       Uiso       1.00
       C17          C  0.5000000  0.8577200  0.2771300    0.00000       Uiso       1.00
       C18          C  0.5000000  0.8913300  0.3452900    0.00000       Uiso       1.00
       C19          C  0.5000000  0.9059500  0.2611400    0.00000       Uiso       1.00
       C20          C  0.5000000  0.9388800  0.3297300    0.00000       Uiso       1.00
       C21          C  0.5000000  0.9483600  0.2870400    0.00000       Uiso       1.00
       C22          C  0.5000000  0.3033800  0.4301400    0.00000       Uiso       1.00
       C23          C  0.5000000  0.3305300  0.3483300    0.00000       Uiso       1.00
       C24          C  0.5000000  0.5252400  0.5737000    0.00000       Uiso       1.00
       H25          H  0.5000000  0.7150400  0.5408700    0.00000       Uiso       1.00
       C26          C  0.5000000  0.6331400  0.3794500    0.00000       Uiso       1.00
       H27          H  0.5000000  0.4606000  0.6032500    0.00000       Uiso       1.00
       H28          H  0.0000000  0.2703100  0.5914200    0.00000       Uiso       1.00
       H29          H  0.0000000  0.0981500  0.6342400    0.00000       Uiso       1.00
       H30          H  0.0000000  0.1584100  0.6836700    0.00000       Uiso       1.00
       H31          H  0.0000000  0.2504700  0.7059200    0.00000       Uiso       1.00
       H32          H  0.0000000  0.3856400  0.6217300    0.00000       Uiso       1.00
       H33          H  0.0000000  0.4650600  0.6467700    0.00000       Uiso       1.00
       H34          H  0.0000000  0.4105000  0.7719400    0.00000       Uiso       1.00
       H35          H  0.0000000  0.6734800  0.7434600    0.00000       Uiso       1.00
       C36          C  0.0000000  0.0536500  0.4616800    0.00000       Uiso       1.00
       C37          C  0.0000000  0.1068200  0.4606600    0.00000       Uiso       1.00
       C38          C  0.0000000  0.1443500  0.4227700    0.00000       Uiso       1.00
       C39          C  0.0000000  0.2319500  0.3994300    0.00000       Uiso       1.00
       C40          C  0.0000000  0.2192800  0.3581300    0.00000       Uiso       1.00
       C41          C  0.0000000  0.2589200  0.3265900    0.00000       Uiso       1.00
       N42          N  0.0000000  0.3039900  0.3398300    0.00000       Uiso       1.00
       C43          C  0.0000000  0.3507000  0.3196800    0.00000       Uiso       1.00
       C44          C  0.0000000  0.3577200  0.2771300    0.00000       Uiso       1.00
       C45          C  0.0000000  0.3913300  0.3452900    0.00000       Uiso       1.00
       C46          C  0.0000000  0.4059500  0.2611400    0.00000       Uiso       1.00
       C47          C  0.0000000  0.4388800  0.3297300    0.00000       Uiso       1.00
       C48          C  0.0000000  0.4483600  0.2870400    0.00000       Uiso       1.00
       C49          C  0.0000000  0.8033800  0.4301400    0.00000       Uiso       1.00
       C50          C  0.0000000  0.8305300  0.3483300    0.00000       Uiso       1.00
       C51          C  0.0000000  0.0252400  0.5737000    0.00000       Uiso       1.00
       H52          H  0.0000000  0.2150400  0.5408700    0.00000       Uiso       1.00
       C53          C  0.0000000  0.1331400  0.3794500    0.00000       Uiso       1.00
       H54          H  0.0000000  0.9606000  0.6032500    0.00000       Uiso       1.00
       H55          H  0.5000000  0.2296900  0.5914200    0.00000       Uiso       1.00
       H56          H  0.5000000  0.4018500  0.6342400    0.00000       Uiso       1.00
       H57          H  0.5000000  0.3415900  0.6836700    0.00000       Uiso       1.00
       H58          H  0.5000000  0.2495300  0.7059200    0.00000       Uiso       1.00
       H59          H  0.5000000  0.1143600  0.6217300    0.00000       Uiso       1.00
       H60          H  0.5000000  0.0349400  0.6467700    0.00000       Uiso       1.00
       H61          H  0.5000000  0.0895000  0.7719400    0.00000       Uiso       1.00
       H62          H  0.5000000  0.8265200  0.7434600    0.00000       Uiso       1.00
       C63          C  0.5000000  0.4463500  0.4616800    0.00000       Uiso       1.00
       C64          C  0.5000000  0.3931800  0.4606600    0.00000       Uiso       1.00
       C65          C  0.5000000  0.3556500  0.4227700    0.00000       Uiso       1.00
       C66          C  0.5000000  0.2680500  0.3994300    0.00000       Uiso       1.00
       C67          C  0.5000000  0.2807200  0.3581300    0.00000       Uiso       1.00
       C68          C  0.5000000  0.2410800  0.3265900    0.00000       Uiso       1.00
       N69          N  0.5000000  0.1960100  0.3398300    0.00000       Uiso       1.00
       C70          C  0.5000000  0.1493000  0.3196800    0.00000       Uiso       1.00
       C71          C  0.5000000  0.1422800  0.2771300    0.00000       Uiso       1.00
       C72          C  0.5000000  0.1086700  0.3452900    0.00000       Uiso       1.00
       C73          C  0.5000000  0.0940500  0.2611400    0.00000       Uiso       1.00
       C74          C  0.5000000  0.0611200  0.3297300    0.00000       Uiso       1.00
       C75          C  0.5000000  0.0516400  0.2870400    0.00000       Uiso       1.00
       C76          C  0.5000000  0.6966200  0.4301400    0.00000       Uiso       1.00
       C77          C  0.5000000  0.6694700  0.3483300    0.00000       Uiso       1.00
       C78          C  0.5000000  0.4747600  0.5737000    0.00000       Uiso       1.00
       H79          H  0.5000000  0.2849600  0.5408700    0.00000       Uiso       1.00
       C80          C  0.5000000  0.3668600  0.3794500    0.00000       Uiso       1.00
       H81          H  0.5000000  0.5394000  0.6032500    0.00000       Uiso       1.00
       H82          H  0.0000000  0.7296900  0.5914200    0.00000       Uiso       1.00
       H83          H  0.0000000  0.9018500  0.6342400    0.00000       Uiso       1.00
       H84          H  0.0000000  0.8415900  0.6836700    0.00000       Uiso       1.00
       H85          H  0.0000000  0.7495300  0.7059200    0.00000       Uiso       1.00
       H86          H  0.0000000  0.6143600  0.6217300    0.00000       Uiso       1.00
       H87          H  0.0000000  0.5349400  0.6467700    0.00000       Uiso       1.00
       H88          H  0.0000000  0.5895000  0.7719400    0.00000       Uiso       1.00
       H89          H  0.0000000  0.3265200  0.7434600    0.00000       Uiso       1.00
       C90          C  0.0000000  0.9463500  0.4616800    0.00000       Uiso       1.00
       C91          C  0.0000000  0.8931800  0.4606600    0.00000       Uiso       1.00
       C92          C  0.0000000  0.8556500  0.4227700    0.00000       Uiso       1.00
       C93          C  0.0000000  0.7680500  0.3994300    0.00000       Uiso       1.00
       C94          C  0.0000000  0.7807200  0.3581300    0.00000       Uiso       1.00
       C95          C  0.0000000  0.7410800  0.3265900    0.00000       Uiso       1.00
       N96          N  0.0000000  0.6960100  0.3398300    0.00000       Uiso       1.00
       C97          C  0.0000000  0.6492999  0.3196800    0.00000       Uiso       1.00
       C98          C  0.0000000  0.6422800  0.2771300    0.00000       Uiso       1.00
       C99          C  0.0000000  0.6086700  0.3452900    0.00000       Uiso       1.00
      C100          C  0.0000000  0.5940500  0.2611400    0.00000       Uiso       1.00
      C101          C  0.0000000  0.5611200  0.3297300    0.00000       Uiso       1.00
      C102          C  0.0000000  0.5516400  0.2870400    0.00000       Uiso       1.00
      C103          C  0.0000000  0.1966200  0.4301400    0.00000       Uiso       1.00
      C104          C  0.0000000  0.1694700  0.3483300    0.00000       Uiso       1.00
      C105          C  0.0000000  0.9747600  0.5737000    0.00000       Uiso       1.00
      H106          H  0.0000000  0.7849600  0.5408700    0.00000       Uiso       1.00
      C107          C  0.0000000  0.8668600  0.3794500    0.00000       Uiso       1.00
      H108          H  0.0000000  0.0394000  0.6032500    0.00000       Uiso       1.00
      H109          H  0.5000000  0.7703099  0.4085800    0.00000       Uiso       1.00
      H110          H  0.5000000  0.5981500  0.3657600    0.00000       Uiso       1.00
      H111          H  0.5000000  0.6584100  0.3163300    0.00000       Uiso       1.00
      H112          H  0.5000000  0.7504700  0.2940800    0.00000       Uiso       1.00
      H113          H  0.5000000  0.8856400  0.3782700    0.00000       Uiso       1.00
      H114          H  0.5000000  0.9650599  0.3532300    0.00000       Uiso       1.00
      H115          H  0.5000000  0.9105000  0.2280600    0.00000       Uiso       1.00
      H116          H  0.5000000  0.1734800  0.2565400    0.00000       Uiso       1.00
      C117          C  0.5000000  0.5536500  0.5383200    0.00000       Uiso       1.00
      C118          C  0.5000000  0.6068200  0.5393400    0.00000       Uiso       1.00
      C119          C  0.5000000  0.6443500  0.5772300    0.00000       Uiso       1.00
      C120          C  0.5000000  0.7319500  0.6005700    0.00000       Uiso       1.00
      C121          C  0.5000000  0.7192800  0.6418700    0.00000       Uiso       1.00
      C122          C  0.5000000  0.7589201  0.6734100    0.00000       Uiso       1.00
      N123          N  0.5000000  0.8039900  0.6601700    0.00000       Uiso       1.00
      C124          C  0.5000000  0.8507000  0.6803200    0.00000       Uiso       1.00
      C125          C  0.5000000  0.8577200  0.7228700    0.00000       Uiso       1.00
      C126          C  0.5000000  0.8913300  0.6547100    0.00000       Uiso       1.00
      C127          C  0.5000000  0.9059500  0.7388600    0.00000       Uiso       1.00
      C128          C  0.5000000  0.9388800  0.6702700    0.00000       Uiso       1.00
      C129          C  0.5000000  0.9483600  0.7129600    0.00000       Uiso       1.00
      C130          C  0.5000000  0.3033800  0.5698600    0.00000       Uiso       1.00
      C131          C  0.5000000  0.3305300  0.6516700    0.00000       Uiso       1.00
      C132          C  0.5000000  0.5252400  0.4263000    0.00000       Uiso       1.00
      H133          H  0.5000000  0.7150400  0.4591300    0.00000       Uiso       1.00
      C134          C  0.5000000  0.6331400  0.6205500    0.00000       Uiso       1.00
      H135          H  0.5000000  0.4606000  0.3967500    0.00000       Uiso       1.00
      H136          H  0.0000000  0.2703100  0.4085800    0.00000       Uiso       1.00
      H137          H  0.0000000  0.0981500  0.3657600    0.00000       Uiso       1.00
      H138          H  0.0000000  0.1584100  0.3163300    0.00000       Uiso       1.00
      H139          H  0.0000000  0.2504700  0.2940800    0.00000       Uiso       1.00
      H140          H  0.0000000  0.3856400  0.3782700    0.00000       Uiso       1.00
      H141          H  0.0000000  0.4650600  0.3532300    0.00000       Uiso       1.00
      H142          H  0.0000000  0.4105000  0.2280600    0.00000       Uiso       1.00
      H143          H  0.0000000  0.6734800  0.2565400    0.00000       Uiso       1.00
      C144          C  0.0000000  0.0536500  0.5383200    0.00000       Uiso       1.00
      C145          C  0.0000000  0.1068200  0.5393400    0.00000       Uiso       1.00
      C146          C  0.0000000  0.1443500  0.5772300    0.00000       Uiso       1.00
      C147          C  0.0000000  0.2319500  0.6005700    0.00000       Uiso       1.00
      C148          C  0.0000000  0.2192800  0.6418700    0.00000       Uiso       1.00
      C149          C  0.0000000  0.2589200  0.6734100    0.00000       Uiso       1.00
      N150          N  0.0000000  0.3039900  0.6601700    0.00000       Uiso       1.00
      C151          C  0.0000000  0.3507000  0.6803200    0.00000       Uiso       1.00
      C152          C  0.0000000  0.3577200  0.7228700    0.00000       Uiso       1.00
      C153          C  0.0000000  0.3913300  0.6547100    0.00000       Uiso       1.00
      C154          C  0.0000000  0.4059500  0.7388600    0.00000       Uiso       1.00
      C155          C  0.0000000  0.4388800  0.6702700    0.00000       Uiso       1.00
      C156          C  0.0000000  0.4483600  0.7129600    0.00000       Uiso       1.00
      C157          C  0.0000000  0.8033800  0.5698600    0.00000       Uiso       1.00
      C158          C  0.0000000  0.8305300  0.6516700    0.00000       Uiso       1.00
      C159          C  0.0000000  0.0252400  0.4263000    0.00000       Uiso       1.00
      H160          H  0.0000000  0.2150400  0.4591300    0.00000       Uiso       1.00
      C161          C  0.0000000  0.1331400  0.6205500    0.00000       Uiso       1.00
      H162          H  0.0000000  0.9606000  0.3967500    0.00000       Uiso       1.00
      H163          H  0.5000000  0.2296900  0.4085800    0.00000       Uiso       1.00
      H164          H  0.5000000  0.4018500  0.3657600    0.00000       Uiso       1.00
      H165          H  0.5000000  0.3415900  0.3163300    0.00000       Uiso       1.00
      H166          H  0.5000000  0.2495300  0.2940800    0.00000       Uiso       1.00
      H167          H  0.5000000  0.1143600  0.3782700    0.00000       Uiso       1.00
      H168          H  0.5000000  0.0349400  0.3532300    0.00000       Uiso       1.00
      H169          H  0.5000000  0.0895000  0.2280600    0.00000       Uiso       1.00
      H170          H  0.5000000  0.8265200  0.2565400    0.00000       Uiso       1.00
      C171          C  0.5000000  0.4463500  0.5383200    0.00000       Uiso       1.00
      C172          C  0.5000000  0.3931800  0.5393400    0.00000       Uiso       1.00
      C173          C  0.5000000  0.3556500  0.5772300    0.00000       Uiso       1.00
      C174          C  0.5000000  0.2680500  0.6005700    0.00000       Uiso       1.00
      C175          C  0.5000000  0.2807200  0.6418700    0.00000       Uiso       1.00
      C176          C  0.5000000  0.2410800  0.6734100    0.00000       Uiso       1.00
      N177          N  0.5000000  0.1960100  0.6601700    0.00000       Uiso       1.00
      C178          C  0.5000000  0.1493000  0.6803200    0.00000       Uiso       1.00
      C179          C  0.5000000  0.1422800  0.7228700    0.00000       Uiso       1.00
      C180          C  0.5000000  0.1086700  0.6547100    0.00000       Uiso       1.00
      C181          C  0.5000000  0.0940500  0.7388600    0.00000       Uiso       1.00
      C182          C  0.5000000  0.0611200  0.6702700    0.00000       Uiso       1.00
      C183          C  0.5000000  0.0516400  0.7129600    0.00000       Uiso       1.00
      C184          C  0.5000000  0.6966200  0.5698600    0.00000       Uiso       1.00
      C185          C  0.5000000  0.6694700  0.6516700    0.00000       Uiso       1.00
      C186          C  0.5000000  0.4747600  0.4263000    0.00000       Uiso       1.00
      H187          H  0.5000000  0.2849600  0.4591300    0.00000       Uiso       1.00
      C188          C  0.5000000  0.3668600  0.6205500    0.00000       Uiso       1.00
      H189          H  0.5000000  0.5394000  0.3967500    0.00000       Uiso       1.00
      H190          H  0.0000000  0.7296900  0.4085800    0.00000       Uiso       1.00
      H191          H  0.0000000  0.9018500  0.3657600    0.00000       Uiso       1.00
      H192          H  0.0000000  0.8415900  0.3163300    0.00000       Uiso       1.00
      H193          H  0.0000000  0.7495300  0.2940800    0.00000       Uiso       1.00
      H194          H  0.0000000  0.6143600  0.3782700    0.00000       Uiso       1.00
      H195          H  0.0000000  0.5349400  0.3532300    0.00000       Uiso       1.00
      H196          H  0.0000000  0.5895000  0.2280600    0.00000       Uiso       1.00
      H197          H  0.0000000  0.3265200  0.2565400    0.00000       Uiso       1.00
      C198          C  0.0000000  0.9463500  0.5383200    0.00000       Uiso       1.00
      C199          C  0.0000000  0.8931800  0.5393400    0.00000       Uiso       1.00
      C200          C  0.0000000  0.8556500  0.5772300    0.00000       Uiso       1.00
      C201          C  0.0000000  0.7680500  0.6005700    0.00000       Uiso       1.00
      C202          C  0.0000000  0.7807200  0.6418700    0.00000       Uiso       1.00
      C203          C  0.0000000  0.7410800  0.6734100    0.00000       Uiso       1.00
      N204          N  0.0000000  0.6960100  0.6601700    0.00000       Uiso       1.00
      C205          C  0.0000000  0.6492999  0.6803200    0.00000       Uiso       1.00
      C206          C  0.0000000  0.6422800  0.7228700    0.00000       Uiso       1.00
      C207          C  0.0000000  0.6086700  0.6547100    0.00000       Uiso       1.00
      C208          C  0.0000000  0.5940500  0.7388600    0.00000       Uiso       1.00
      C209          C  0.0000000  0.5611200  0.6702700    0.00000       Uiso       1.00
      C210          C  0.0000000  0.5516400  0.7129600    0.00000       Uiso       1.00
      C211          C  0.0000000  0.1966200  0.5698600    0.00000       Uiso       1.00
      C212          C  0.0000000  0.1694700  0.6516700    0.00000       Uiso       1.00
      C213          C  0.0000000  0.9747600  0.4263000    0.00000       Uiso       1.00
      H214          H  0.0000000  0.7849600  0.4591300    0.00000       Uiso       1.00
      C215          C  0.0000000  0.8668600  0.6205500    0.00000       Uiso       1.00
      H216          H  0.0000000  0.0394000  0.3967500    0.00000       Uiso       1.00
      H217          H  0.2400800  0.0000000  0.1253900    0.00000       Uiso       1.00
      H218          H  0.0570700  0.0000000  0.1807300    0.00000       Uiso       1.00
      H219          H  0.1293700  0.0000000  0.2256000    0.00000       Uiso       1.00
      H220          H  0.2303500  0.0000000  0.2408200    0.00000       Uiso       1.00
      H221          H  0.3739300  0.0000000  0.1525700    0.00000       Uiso       1.00
      H222          H  0.4616200  0.0000000  0.1771400    0.00000       Uiso       1.00
      H223          H  0.4031400  0.0000000  0.3025900    0.00000       Uiso       1.00
      H224          H  0.6884900  0.0000000  0.2751000    0.00000       Uiso       1.00
      C225          C  0.0496500  0.0000000  0.9547600    0.00000       Uiso       1.00
      C226          C  0.0953500  0.0000000  0.9789500    0.00000       Uiso       1.00
      C227          C  0.1014500  0.0000000  0.8794700    0.00000       Uiso       1.00
      C228          C  0.1992600  0.0000000  0.8629000    0.00000       Uiso       1.00
      C229          C  0.1904500  0.0000000  0.8207900    0.00000       Uiso       1.00
      C230          C  0.2368000  0.0000000  0.7920800    0.00000       Uiso       1.00
      N231          N  0.2848600  0.0000000  0.8076800    0.00000       Uiso       1.00
      C232          C  0.3366000  0.0000000  0.7884700    0.00000       Uiso       1.00
      C233          C  0.3450500  0.0000000  0.7459800    0.00000       Uiso       1.00
      C234          C  0.3806400  0.0000000  0.8145300    0.00000       Uiso       1.00
      C235          C  0.3977900  0.0000000  0.7304600    0.00000       Uiso       1.00
      C236          C  0.4329100  0.0000000  0.7993400    0.00000       Uiso       1.00
      C237          C  0.4436800  0.0000000  0.7566900    0.00000       Uiso       1.00
      C238          C  0.8430200  0.0000000  0.8909300    0.00000       Uiso       1.00
      C239          C  0.8623700  0.0000000  0.8071200    0.00000       Uiso       1.00
      C240          C  0.0511800  0.0000000  0.0900000    0.00000       Uiso       1.00
      H241          H  0.1338700  0.0000000  0.9679400    0.00000       Uiso       1.00
      H242          H  0.1743900  0.0000000  0.0799300    0.00000       Uiso       1.00
      C243          C  0.9053500  0.0000000  0.8352400    0.00000       Uiso       1.00
      H244          H  0.7400800  0.5000000  0.1253900    0.00000       Uiso       1.00
      H245          H  0.5570700  0.5000000  0.1807300    0.00000       Uiso       1.00
      H246          H  0.6293700  0.5000000  0.2256000    0.00000       Uiso       1.00
      H247          H  0.7303500  0.5000000  0.2408200    0.00000       Uiso       1.00
      H248          H  0.8739300  0.5000000  0.1525700    0.00000       Uiso       1.00
      H249          H  0.9616200  0.5000000  0.1771400    0.00000       Uiso       1.00
      H250          H  0.9031400  0.5000000  0.3025900    0.00000       Uiso       1.00
      H251          H  0.1884900  0.5000000  0.2751000    0.00000       Uiso       1.00
      C252          C  0.5496500  0.5000000  0.9547600    0.00000       Uiso       1.00
      C253          C  0.5953500  0.5000000  0.9789500    0.00000       Uiso       1.00
      C254          C  0.6014500  0.5000000  0.8794700    0.00000       Uiso       1.00
      C255          C  0.6992600  0.5000000  0.8629000    0.00000       Uiso       1.00
      C256          C  0.6904500  0.5000000  0.8207900    0.00000       Uiso       1.00
      C257          C  0.7368000  0.5000000  0.7920800    0.00000       Uiso       1.00
      N258          N  0.7848600  0.5000000  0.8076800    0.00000       Uiso       1.00
      C259          C  0.8365999  0.5000000  0.7884700    0.00000       Uiso       1.00
      C260          C  0.8450500  0.5000000  0.7459800    0.00000       Uiso       1.00
      C261          C  0.8806400  0.5000000  0.8145300    0.00000       Uiso       1.00
      C262          C  0.8977900  0.5000000  0.7304600    0.00000       Uiso       1.00
      C263          C  0.9329100  0.5000000  0.7993400    0.00000       Uiso       1.00
      C264          C  0.9436800  0.5000000  0.7566900    0.00000       Uiso       1.00
      C265          C  0.3430200  0.5000000  0.8909300    0.00000       Uiso       1.00
      C266          C  0.3623700  0.5000000  0.8071200    0.00000       Uiso       1.00
      C267          C  0.5511800  0.5000000  0.0900000    0.00000       Uiso       1.00
      H268          H  0.6338700  0.5000000  0.9679400    0.00000       Uiso       1.00
      H269          H  0.6743900  0.5000000  0.0799300    0.00000       Uiso       1.00
      C270          C  0.4053500  0.5000000  0.8352400    0.00000       Uiso       1.00
      H271          H  0.7599200  0.0000000  0.1253900    0.00000       Uiso       1.00
      H272          H  0.9429300  0.0000000  0.1807300    0.00000       Uiso       1.00
      H273          H  0.8706300  0.0000000  0.2256000    0.00000       Uiso       1.00
      H274          H  0.7696500  0.0000000  0.2408200    0.00000       Uiso       1.00
      H275          H  0.6260700  0.0000000  0.1525700    0.00000       Uiso       1.00
      H276          H  0.5383800  0.0000000  0.1771400    0.00000       Uiso       1.00
      H277          H  0.5968600  0.0000000  0.3025900    0.00000       Uiso       1.00
      H278          H  0.3115100  0.0000000  0.2751000    0.00000       Uiso       1.00
      C279          C  0.9503500  0.0000000  0.9547600    0.00000       Uiso       1.00
      C280          C  0.9046500  0.0000000  0.9789500    0.00000       Uiso       1.00
      C281          C  0.8985500  0.0000000  0.8794700    0.00000       Uiso       1.00
      C282          C  0.8007399  0.0000000  0.8629000    0.00000       Uiso       1.00
      C283          C  0.8095500  0.0000000  0.8207900    0.00000       Uiso       1.00
      C284          C  0.7632000  0.0000000  0.7920800    0.00000       Uiso       1.00
      N285          N  0.7151400  0.0000000  0.8076800    0.00000       Uiso       1.00
      C286          C  0.6634000  0.0000000  0.7884700    0.00000       Uiso       1.00
      C287          C  0.6549501  0.0000000  0.7459800    0.00000       Uiso       1.00
      C288          C  0.6193600  0.0000000  0.8145300    0.00000       Uiso       1.00
      C289          C  0.6022100  0.0000000  0.7304600    0.00000       Uiso       1.00
      C290          C  0.5670900  0.0000000  0.7993400    0.00000       Uiso       1.00
      C291          C  0.5563200  0.0000000  0.7566900    0.00000       Uiso       1.00
      C292          C  0.1569800  0.0000000  0.8909300    0.00000       Uiso       1.00
      C293          C  0.1376300  0.0000000  0.8071200    0.00000       Uiso       1.00
      C294          C  0.9488200  0.0000000  0.0900000    0.00000       Uiso       1.00
      H295          H  0.8661300  0.0000000  0.9679400    0.00000       Uiso       1.00
      H296          H  0.8256100  0.0000000  0.0799300    0.00000       Uiso       1.00
      C297          C  0.0946500  0.0000000  0.8352400    0.00000       Uiso       1.00
      H298          H  0.2599200  0.5000000  0.1253900    0.00000       Uiso       1.00
      H299          H  0.4429300  0.5000000  0.1807300    0.00000       Uiso       1.00
      H300          H  0.3706300  0.5000000  0.2256000    0.00000       Uiso       1.00
      H301          H  0.2696500  0.5000000  0.2408200    0.00000       Uiso       1.00
      H302          H  0.1260700  0.5000000  0.1525700    0.00000       Uiso       1.00
      H303          H  0.0383800  0.5000000  0.1771400    0.00000       Uiso       1.00
      H304          H  0.0968600  0.5000000  0.3025900    0.00000       Uiso       1.00
      H305          H  0.8115100  0.5000000  0.2751000    0.00000       Uiso       1.00
      C306          C  0.4503500  0.5000000  0.9547600    0.00000       Uiso       1.00
      C307          C  0.4046500  0.5000000  0.9789500    0.00000       Uiso       1.00
      C308          C  0.3985500  0.5000000  0.8794700    0.00000       Uiso       1.00
      C309          C  0.3007400  0.5000000  0.8629000    0.00000       Uiso       1.00
      C310          C  0.3095500  0.5000000  0.8207900    0.00000       Uiso       1.00
      C311          C  0.2632000  0.5000000  0.7920800    0.00000       Uiso       1.00
      N312          N  0.2151400  0.5000000  0.8076800    0.00000       Uiso       1.00
      C313          C  0.1634000  0.5000000  0.7884700    0.00000       Uiso       1.00
      C314          C  0.1549500  0.5000000  0.7459800    0.00000       Uiso       1.00
      C315          C  0.1193600  0.5000000  0.8145300    0.00000       Uiso       1.00
      C316          C  0.1022100  0.5000000  0.7304600    0.00000       Uiso       1.00
      C317          C  0.0670900  0.5000000  0.7993400    0.00000       Uiso       1.00
      C318          C  0.0563200  0.5000000  0.7566900    0.00000       Uiso       1.00
      C319          C  0.6569800  0.5000000  0.8909300    0.00000       Uiso       1.00
      C320          C  0.6376300  0.5000000  0.8071200    0.00000       Uiso       1.00
      C321          C  0.4488200  0.5000000  0.0900000    0.00000       Uiso       1.00
      H322          H  0.3661300  0.5000000  0.9679400    0.00000       Uiso       1.00
      H323          H  0.3256100  0.5000000  0.0799300    0.00000       Uiso       1.00
      C324          C  0.5946500  0.5000000  0.8352400    0.00000       Uiso       1.00
      H325          H  0.7599200  0.0000000  0.8746100    0.00000       Uiso       1.00
      H326          H  0.9429300  0.0000000  0.8192700    0.00000       Uiso       1.00
      H327          H  0.8706300  0.0000000  0.7744000    0.00000       Uiso       1.00
      H328          H  0.7696500  0.0000000  0.7591800    0.00000       Uiso       1.00
      H329          H  0.6260700  0.0000000  0.8474300    0.00000       Uiso       1.00
      H330          H  0.5383800  0.0000000  0.8228600    0.00000       Uiso       1.00
      H331          H  0.5968600  0.0000000  0.6974100    0.00000       Uiso       1.00
      H332          H  0.3115100  0.0000000  0.7249000    0.00000       Uiso       1.00
      C333          C  0.9503500  0.0000000  0.0452400    0.00000       Uiso       1.00
      C334          C  0.9046500  0.0000000  0.0210500    0.00000       Uiso       1.00
      C335          C  0.8985500  0.0000000  0.1205300    0.00000       Uiso       1.00
      C336          C  0.8007399  0.0000000  0.1371000    0.00000       Uiso       1.00
      C337          C  0.8095500  0.0000000  0.1792100    0.00000       Uiso       1.00
      C338          C  0.7632000  0.0000000  0.2079200    0.00000       Uiso       1.00
      N339          N  0.7151400  0.0000000  0.1923200    0.00000       Uiso       1.00
      C340          C  0.6634000  0.0000000  0.2115300    0.00000       Uiso       1.00
      C341          C  0.6549501  0.0000000  0.2540200    0.00000       Uiso       1.00
      C342          C  0.6193600  0.0000000  0.1854700    0.00000       Uiso       1.00
      C343          C  0.6022100  0.0000000  0.2695400    0.00000       Uiso       1.00
      C344          C  0.5670900  0.0000000  0.2006600    0.00000       Uiso       1.00
      C345          C  0.5563200  0.0000000  0.2433100    0.00000       Uiso       1.00
      C346          C  0.1569800  0.0000000  0.1090700    0.00000       Uiso       1.00
      C347          C  0.1376300  0.0000000  0.1928800    0.00000       Uiso       1.00
      C348          C  0.9488200  0.0000000  0.9100000    0.00000       Uiso       1.00
      H349          H  0.8661300  0.0000000  0.0320600    0.00000       Uiso       1.00
      H350          H  0.8256100  0.0000000  0.9200700    0.00000       Uiso       1.00
      C351          C  0.0946500  0.0000000  0.1647600    0.00000       Uiso       1.00
      H352          H  0.2599200  0.5000000  0.8746100    0.00000       Uiso       1.00
      H353          H  0.4429300  0.5000000  0.8192700    0.00000       Uiso       1.00
      H354          H  0.3706300  0.5000000  0.7744000    0.00000       Uiso       1.00
      H355          H  0.2696500  0.5000000  0.7591800    0.00000       Uiso       1.00
      H356          H  0.1260700  0.5000000  0.8474300    0.00000       Uiso       1.00
      H357          H  0.0383800  0.5000000  0.8228600    0.00000       Uiso       1.00
      H358          H  0.0968600  0.5000000  0.6974100    0.00000       Uiso       1.00
      H359          H  0.8115100  0.5000000  0.7249000    0.00000       Uiso       1.00
      C360          C  0.4503500  0.5000000  0.0452400    0.00000       Uiso       1.00
      C361          C  0.4046500  0.5000000  0.0210500    0.00000       Uiso       1.00
      C362          C  0.3985500  0.5000000  0.1205300    0.00000       Uiso       1.00
      C363          C  0.3007400  0.5000000  0.1371000    0.00000       Uiso       1.00
      C364          C  0.3095500  0.5000000  0.1792100    0.00000       Uiso       1.00
      C365          C  0.2632000  0.5000000  0.2079200    0.00000       Uiso       1.00
      N366          N  0.2151400  0.5000000  0.1923200    0.00000       Uiso       1.00
      C367          C  0.1634000  0.5000000  0.2115300    0.00000       Uiso       1.00
      C368          C  0.1549500  0.5000000  0.2540200    0.00000       Uiso       1.00
      C369          C  0.1193600  0.5000000  0.1854700    0.00000       Uiso       1.00
      C370          C  0.1022100  0.5000000  0.2695400    0.00000       Uiso       1.00
      C371          C  0.0670900  0.5000000  0.2006600    0.00000       Uiso       1.00
      C372          C  0.0563200  0.5000000  0.2433100    0.00000       Uiso       1.00
      C373          C  0.6569800  0.5000000  0.1090700    0.00000       Uiso       1.00
      C374          C  0.6376300  0.5000000  0.1928800    0.00000       Uiso       1.00
      C375          C  0.4488200  0.5000000  0.9100000    0.00000       Uiso       1.00
      H376          H  0.3661300  0.5000000  0.0320600    0.00000       Uiso       1.00
      H377          H  0.3256100  0.5000000  0.9200700    0.00000       Uiso       1.00
      C378          C  0.5946500  0.5000000  0.1647600    0.00000       Uiso       1.00
      H379          H  0.2400800  0.0000000  0.8746100    0.00000       Uiso       1.00
      H380          H  0.0570700  0.0000000  0.8192700    0.00000       Uiso       1.00
      H381          H  0.1293700  0.0000000  0.7744000    0.00000       Uiso       1.00
      H382          H  0.2303500  0.0000000  0.7591800    0.00000       Uiso       1.00
      H383          H  0.3739300  0.0000000  0.8474300    0.00000       Uiso       1.00
      H384          H  0.4616200  0.0000000  0.8228600    0.00000       Uiso       1.00
      H385          H  0.4031400  0.0000000  0.6974100    0.00000       Uiso       1.00
      H386          H  0.6884900  0.0000000  0.7249000    0.00000       Uiso       1.00
      C387          C  0.0496500  0.0000000  0.0452400    0.00000       Uiso       1.00
      C388          C  0.0953500  0.0000000  0.0210500    0.00000       Uiso       1.00
      C389          C  0.1014500  0.0000000  0.1205300    0.00000       Uiso       1.00
      C390          C  0.1992600  0.0000000  0.1371000    0.00000       Uiso       1.00
      C391          C  0.1904500  0.0000000  0.1792100    0.00000       Uiso       1.00
      C392          C  0.2368000  0.0000000  0.2079200    0.00000       Uiso       1.00
      N393          N  0.2848600  0.0000000  0.1923200    0.00000       Uiso       1.00
      C394          C  0.3366000  0.0000000  0.2115300    0.00000       Uiso       1.00
      C395          C  0.3450500  0.0000000  0.2540200    0.00000       Uiso       1.00
      C396          C  0.3806400  0.0000000  0.1854700    0.00000       Uiso       1.00
      C397          C  0.3977900  0.0000000  0.2695400    0.00000       Uiso       1.00
      C398          C  0.4329100  0.0000000  0.2006600    0.00000       Uiso       1.00
      C399          C  0.4436800  0.0000000  0.2433100    0.00000       Uiso       1.00
      C400          C  0.8430200  0.0000000  0.1090700    0.00000       Uiso       1.00
      C401          C  0.8623700  0.0000000  0.1928800    0.00000       Uiso       1.00
      C402          C  0.0511800  0.0000000  0.9100000    0.00000       Uiso       1.00
      H403          H  0.1338700  0.0000000  0.0320600    0.00000       Uiso       1.00
      H404          H  0.1743900  0.0000000  0.9200700    0.00000       Uiso       1.00
      C405          C  0.9053500  0.0000000  0.1647600    0.00000       Uiso       1.00
      H406          H  0.7400800  0.5000000  0.8746100    0.00000       Uiso       1.00
      H407          H  0.5570700  0.5000000  0.8192700    0.00000       Uiso       1.00
      H408          H  0.6293700  0.5000000  0.7744000    0.00000       Uiso       1.00
      H409          H  0.7303500  0.5000000  0.7591800    0.00000       Uiso       1.00
      H410          H  0.8739300  0.5000000  0.8474300    0.00000       Uiso       1.00
      H411          H  0.9616200  0.5000000  0.8228600    0.00000       Uiso       1.00
      H412          H  0.9031400  0.5000000  0.6974100    0.00000       Uiso       1.00
      H413          H  0.1884900  0.5000000  0.7249000    0.00000       Uiso       1.00
      C414          C  0.5496500  0.5000000  0.0452400    0.00000       Uiso       1.00
      C415          C  0.5953500  0.5000000  0.0210500    0.00000       Uiso       1.00
      C416          C  0.6014500  0.5000000  0.1205300    0.00000       Uiso       1.00
      C417          C  0.6992600  0.5000000  0.1371000    0.00000       Uiso       1.00
      C418          C  0.6904500  0.5000000  0.1792100    0.00000       Uiso       1.00
      C419          C  0.7368000  0.5000000  0.2079200    0.00000       Uiso       1.00
      N420          N  0.7848600  0.5000000  0.1923200    0.00000       Uiso       1.00
      C421          C  0.8365999  0.5000000  0.2115300    0.00000       Uiso       1.00
      C422          C  0.8450500  0.5000000  0.2540200    0.00000       Uiso       1.00
      C423          C  0.8806400  0.5000000  0.1854700    0.00000       Uiso       1.00
      C424          C  0.8977900  0.5000000  0.2695400    0.00000       Uiso       1.00
      C425          C  0.9329100  0.5000000  0.2006600    0.00000       Uiso       1.00
      C426          C  0.9436800  0.5000000  0.2433100    0.00000       Uiso       1.00
      C427          C  0.3430200  0.5000000  0.1090700    0.00000       Uiso       1.00
      C428          C  0.3623700  0.5000000  0.1928800    0.00000       Uiso       1.00
      C429          C  0.5511800  0.5000000  0.9100000    0.00000       Uiso       1.00
      H430          H  0.6338700  0.5000000  0.0320600    0.00000       Uiso       1.00
      H431          H  0.6743900  0.5000000  0.9200700    0.00000       Uiso       1.00
      C432          C  0.4053500  0.5000000  0.1647600    0.00000       Uiso       1.00
      C433          C  0.5000000  0.0000000  0.7348900    0.00000       Uiso       1.00
      C434          C  0.0000000  0.5000000  0.7348900    0.00000       Uiso       1.00
      C435          C  0.5000000  0.0000000  0.2651100    0.00000       Uiso       1.00
      C436          C  0.0000000  0.5000000  0.2651100    0.00000       Uiso       1.00
      C437          C  0.0000000  0.0000000  0.0228100    0.00000       Uiso       1.00
      C438          C  0.0000000  0.0000000  0.8912600    0.00000       Uiso       1.00
      H439          H  0.0000000  0.0000000  0.8598900    0.00000       Uiso       1.00
      C440          C  0.5000000  0.5000000  0.0228100    0.00000       Uiso       1.00
      C441          C  0.5000000  0.5000000  0.8912600    0.00000       Uiso       1.00
      H442          H  0.5000000  0.5000000  0.8598900    0.00000       Uiso       1.00
      C443          C  0.0000000  0.0000000  0.9771900    0.00000       Uiso       1.00
      C444          C  0.0000000  0.0000000  0.1087400    0.00000       Uiso       1.00
      H445          H  0.0000000  0.0000000  0.1401100    0.00000       Uiso       1.00
      C446          C  0.5000000  0.5000000  0.9771900    0.00000       Uiso       1.00
      C447          C  0.5000000  0.5000000  0.1087400    0.00000       Uiso       1.00
      H448          H  0.5000000  0.5000000  0.1401100    0.00000       Uiso       1.00
      C449          C  0.5000000  0.4729900  0.5000000    0.00000       Uiso       1.00
      C450          C  0.5000000  0.3715700  0.5000000    0.00000       Uiso       1.00
      H451          H  0.5000000  0.3349400  0.5000000    0.00000       Uiso       1.00
      C452          C  0.0000000  0.9729900  0.5000000    0.00000       Uiso       1.00
      C453          C  0.0000000  0.8715700  0.5000000    0.00000       Uiso       1.00
      H454          H  0.0000000  0.8349400  0.5000000    0.00000       Uiso       1.00
      C455          C  0.5000000  0.5270100  0.5000000    0.00000       Uiso       1.00
      C456          C  0.5000000  0.6284300  0.5000000    0.00000       Uiso       1.00
      H457          H  0.5000000  0.6650600  0.5000000    0.00000       Uiso       1.00
      C458          C  0.0000000  0.0270100  0.5000000    0.00000       Uiso       1.00
      C459          C  0.0000000  0.1284300  0.5000000    0.00000       Uiso       1.00
      H460          H  0.0000000  0.1650600  0.5000000    0.00000       Uiso       1.00
