data_CTF-fuma
_audit_creation_date              0000-00-00
_audit_creation_method            'LanYouShi'
_symmetry_space_group_name_H-M    'P1'
_cell_length_a                    11.1520004
_cell_length_b                    11.1520004
_cell_length_c                    3.4995999
_cell_angle_alpha                 90.0000000
_cell_angle_beta                  90.0000000
_cell_angle_gamma                 120.0000000
loop_
_atom_site_label
_atom_site_type_symbol
_atom_site_fract_x
_atom_site_fract_y
_atom_site_fract_z
_atom_site_U_iso_or_equiv
_atom_site_adp_type
_atom_site_occupancy
        C1          C  0.8057390  0.3826260  0.5000040    0.00000       Uiso       1.00
        C2          C  0.6173780  0.4231130  0.5000040    0.00000       Uiso       1.00
        C3          C  0.5768920  0.1942660  0.5000040    0.00000       Uiso       1.00
        C4          C  0.1942660  0.6173780  0.5000040    0.00000       Uiso       1.00
        C5          C  0.3826260  0.5768920  0.5000040    0.00000       Uiso       1.00
        C6          C  0.4231130  0.8057390  0.5000040    0.00000       Uiso       1.00
        N7          N  0.7154450  0.2447190  0.5000040    0.00000       Uiso       1.00
        N8          N  0.7552850  0.4707260  0.5000040    0.00000       Uiso       1.00
        N9          N  0.5292790  0.2845600  0.5000040    0.00000       Uiso       1.00
       N10          N  0.2845600  0.7552850  0.5000040    0.00000       Uiso       1.00
       N11          N  0.2447190  0.5292790  0.5000040    0.00000       Uiso       1.00
       N12          N  0.4707260  0.7154450  0.5000040    0.00000       Uiso       1.00
       C13          C  0.4815090  0.0518670  0.5000040    0.00000       Uiso       1.00
       C14          C  0.9481370  0.4296420  0.5000040    0.00000       Uiso       1.00
       C15          C  0.5703620  0.5184950  0.5000040    0.00000       Uiso       1.00
       C16          C  0.5184950  0.9481380  0.5000040    0.00000       Uiso       1.00
       C17          C  0.0518670  0.5703620  0.5000040    0.00000       Uiso       1.00
       C18          C  0.4296420  0.4815090  0.5000040    0.00000       Uiso       1.00
       H19          H  0.3788180  0.0230070  0.5000040    0.00000       Uiso       1.00
       H20          H  0.9769970  0.3558110  0.5000040    0.00000       Uiso       1.00
       H21          H  0.6441930  0.6211870  0.5000040    0.00000       Uiso       1.00
       H22          H  0.6211870  0.9769970  0.5000040    0.00000       Uiso       1.00
       H23          H  0.0230070  0.6441930  0.5000040    0.00000       Uiso       1.00
       H24          H  0.3558110  0.3788180  0.5000040    0.00000       Uiso       1.00
