data_CuP-SQ_COF
_audit_creation_date              0000-00-00
_audit_creation_method            'LanYouShi'
_symmetry_space_group_name_H-M    'P1'
_cell_length_a                    23.3292999
_cell_length_b                    34.9570999
_cell_length_c                    6.7638001
_cell_angle_alpha                 90.0000000
_cell_angle_beta                  90.0000000
_cell_angle_gamma                 90.0000000
loop_
_atom_site_label
_atom_site_type_symbol
_atom_site_fract_x
_atom_site_fract_y
_atom_site_fract_z
_atom_site_U_iso_or_equiv
_atom_site_adp_type
_atom_site_occupancy
        N1          N  0.2268580  0.6849950  0.5000010    0.00000       Uiso       1.00
        N2          N  0.7268580  0.1849940  0.5000010    0.00000       Uiso       1.00
        N3          N  0.7731400  0.3150070  0.5000010    0.00000       Uiso       1.00
        N4          N  0.2731410  0.8150070  0.5000010    0.00000       Uiso       1.00
        N5          N  0.7731400  0.6849950  0.5000010    0.00000       Uiso       1.00
        N6          N  0.2731410  0.1849940  0.5000010    0.00000       Uiso       1.00
        N7          N  0.2268580  0.3150070  0.5000010    0.00000       Uiso       1.00
        N8          N  0.7268580  0.8150070  0.5000010    0.00000       Uiso       1.00
        C9          C  0.2406530  0.7224590  0.5000010    0.00000       Uiso       1.00
       C10          C  0.7406520  0.2224590  0.5000010    0.00000       Uiso       1.00
       C11          C  0.7593461  0.2775420  0.5000010    0.00000       Uiso       1.00
       C12          C  0.2593460  0.7775430  0.5000010    0.00000       Uiso       1.00
       C13          C  0.7593461  0.7224590  0.5000010    0.00000       Uiso       1.00
       C14          C  0.2593460  0.2224590  0.5000010    0.00000       Uiso       1.00
       C15          C  0.2406530  0.2775420  0.5000010    0.00000       Uiso       1.00
       C16          C  0.7406520  0.7775430  0.5000010    0.00000       Uiso       1.00
       C17          C  0.2089090  0.7561370  0.5000010    0.00000       Uiso       1.00
       C18          C  0.7089080  0.2561360  0.5000010    0.00000       Uiso       1.00
       C19          C  0.7910900  0.2438650  0.5000010    0.00000       Uiso       1.00
       C20          C  0.2910900  0.7438650  0.5000010    0.00000       Uiso       1.00
       C21          C  0.7910900  0.7561370  0.5000010    0.00000       Uiso       1.00
       C22          C  0.2910900  0.2561360  0.5000010    0.00000       Uiso       1.00
       C23          C  0.2089090  0.2438650  0.5000010    0.00000       Uiso       1.00
       C24          C  0.7089080  0.7438650  0.5000010    0.00000       Uiso       1.00
       H25          H  0.1867380  0.6777060  0.5000010    0.00000       Uiso       1.00
       H26          H  0.6867380  0.1777060  0.5000010    0.00000       Uiso       1.00
       H27          H  0.8132600  0.3222950  0.5000010    0.00000       Uiso       1.00
       H28          H  0.3132610  0.8222960  0.5000010    0.00000       Uiso       1.00
       H29          H  0.8132600  0.6777060  0.5000010    0.00000       Uiso       1.00
       H30          H  0.3132610  0.1777060  0.5000010    0.00000       Uiso       1.00
       H31          H  0.1867380  0.3222950  0.5000010    0.00000       Uiso       1.00
       H32          H  0.6867380  0.8222960  0.5000010    0.00000       Uiso       1.00
       C33          C  0.9519310  0.9173280  0.5000010    0.00000       Uiso       1.00
       C34          C  0.4519320  0.4173270  0.5000010    0.00000       Uiso       1.00
       C35          C  0.0480670  0.0826730  0.5000010    0.00000       Uiso       1.00
       C36          C  0.5480660  0.5826740  0.5000010    0.00000       Uiso       1.00
       C37          C  0.0480670  0.9173280  0.5000010    0.00000       Uiso       1.00
       C38          C  0.5480660  0.4173270  0.5000010    0.00000       Uiso       1.00
       C39          C  0.9519310  0.0826730  0.5000010    0.00000       Uiso       1.00
       C40          C  0.4519320  0.5826740  0.5000010    0.00000       Uiso       1.00
       C41          C  0.9704630  0.8793620  0.5000010    0.00000       Uiso       1.00
       C42          C  0.4704640  0.3793620  0.5000010    0.00000       Uiso       1.00
       C43          C  0.0295350  0.1206390  0.5000010    0.00000       Uiso       1.00
       C44          C  0.5295340  0.6206400  0.5000010    0.00000       Uiso       1.00
       C45          C  0.0295350  0.8793620  0.5000010    0.00000       Uiso       1.00
       C46          C  0.5295340  0.3793620  0.5000010    0.00000       Uiso       1.00
       C47          C  0.9704630  0.1206390  0.5000010    0.00000       Uiso       1.00
       C48          C  0.4704640  0.6206400  0.5000010    0.00000       Uiso       1.00
       H49          H  0.9453190  0.8554280  0.5000010    0.00000       Uiso       1.00
       H50          H  0.4453200  0.3554270  0.5000010    0.00000       Uiso       1.00
       H51          H  0.0546790  0.1445730  0.5000010    0.00000       Uiso       1.00
       H52          H  0.5546780  0.6445740  0.5000010    0.00000       Uiso       1.00
       H53          H  0.0546790  0.8554280  0.5000010    0.00000       Uiso       1.00
       H54          H  0.5546780  0.3554270  0.5000010    0.00000       Uiso       1.00
       H55          H  0.9453190  0.1445730  0.5000010    0.00000       Uiso       1.00
       H56          H  0.4453200  0.6445740  0.5000010    0.00000       Uiso       1.00
       N57          N  0.4097360  0.5000010  0.5000010    0.00000       Uiso       1.00
       N58          N  0.9097351  0.0000000  0.5000010    0.00000       Uiso       1.00
       N59          N  0.5902630  0.5000010  0.5000010    0.00000       Uiso       1.00
       N60          N  0.0902630  0.0000000  0.5000010    0.00000       Uiso       1.00
       C61          C  0.3765720  0.4681390  0.5000010    0.00000       Uiso       1.00
       C62          C  0.8765710  0.9681401  0.5000010    0.00000       Uiso       1.00
       C63          C  0.6234270  0.5318620  0.5000010    0.00000       Uiso       1.00
       C64          C  0.1234280  0.0318620  0.5000010    0.00000       Uiso       1.00
       C65          C  0.6234270  0.4681390  0.5000010    0.00000       Uiso       1.00
       C66          C  0.1234280  0.9681401  0.5000010    0.00000       Uiso       1.00
       C67          C  0.3765720  0.5318620  0.5000010    0.00000       Uiso       1.00
       C68          C  0.8765710  0.0318620  0.5000010    0.00000       Uiso       1.00
       C69          C  0.3196040  0.4803310  0.5000010    0.00000       Uiso       1.00
       C70          C  0.8196031  0.9803321  0.5000010    0.00000       Uiso       1.00
       C71          C  0.6803940  0.5196700  0.5000010    0.00000       Uiso       1.00
       C72          C  0.1803950  0.0196690  0.5000010    0.00000       Uiso       1.00
       C73          C  0.6803940  0.4803310  0.5000010    0.00000       Uiso       1.00
       C74          C  0.1803950  0.9803321  0.5000010    0.00000       Uiso       1.00
       C75          C  0.3196040  0.5196700  0.5000010    0.00000       Uiso       1.00
       C76          C  0.8196031  0.0196690  0.5000010    0.00000       Uiso       1.00
       H77          H  0.2837650  0.4635120  0.5000010    0.00000       Uiso       1.00
       H78          H  0.7837640  0.9635130  0.5000010    0.00000       Uiso       1.00
       H79          H  0.7162330  0.5364890  0.5000010    0.00000       Uiso       1.00
       H80          H  0.2162340  0.0364880  0.5000010    0.00000       Uiso       1.00
       H81          H  0.7162330  0.4635120  0.5000010    0.00000       Uiso       1.00
       H82          H  0.2162340  0.9635130  0.5000010    0.00000       Uiso       1.00
       H83          H  0.2837650  0.5364890  0.5000010    0.00000       Uiso       1.00
       H84          H  0.7837640  0.0364880  0.5000010    0.00000       Uiso       1.00
       C85          C  0.8940890  0.9293930  0.5000010    0.00000       Uiso       1.00
       C86          C  0.3940900  0.4293920  0.5000010    0.00000       Uiso       1.00
       C87          C  0.1059090  0.0706080  0.5000010    0.00000       Uiso       1.00
       C88          C  0.6059090  0.5706090  0.5000010    0.00000       Uiso       1.00
       C89          C  0.1059090  0.9293930  0.5000010    0.00000       Uiso       1.00
       C90          C  0.6059090  0.4293920  0.5000010    0.00000       Uiso       1.00
       C91          C  0.8940890  0.0706080  0.5000010    0.00000       Uiso       1.00
       C92          C  0.3940900  0.5706090  0.5000010    0.00000       Uiso       1.00
       C93          C  0.8512830  0.9007970  0.5000010    0.00000       Uiso       1.00
       C94          C  0.3512840  0.4007960  0.5000010    0.00000       Uiso       1.00
       C95          C  0.1487150  0.0992040  0.5000010    0.00000       Uiso       1.00
       C96          C  0.6487140  0.5992050  0.5000010    0.00000       Uiso       1.00
       C97          C  0.1487150  0.9007970  0.5000010    0.00000       Uiso       1.00
       C98          C  0.6487140  0.4007960  0.5000010    0.00000       Uiso       1.00
       C99          C  0.8512830  0.0992040  0.5000010    0.00000       Uiso       1.00
      C100          C  0.3512840  0.5992050  0.5000010    0.00000       Uiso       1.00
      C101          C  0.3297760  0.3862750  0.6802890    0.00000       Uiso       1.00
      C102          C  0.8297749  0.8862760  0.6802890    0.00000       Uiso       1.00
      C103          C  0.6702220  0.6137260  0.6802890    0.00000       Uiso       1.00
      C104          C  0.1702230  0.1137250  0.6802890    0.00000       Uiso       1.00
      C105          C  0.6702220  0.3862750  0.3197130    0.00000       Uiso       1.00
      C106          C  0.1702230  0.8862760  0.3197130    0.00000       Uiso       1.00
      C107          C  0.3297760  0.6137260  0.3197130    0.00000       Uiso       1.00
      C108          C  0.8297749  0.1137250  0.3197130    0.00000       Uiso       1.00
      C109          C  0.6702220  0.6137260  0.3197130    0.00000       Uiso       1.00
      C110          C  0.1702230  0.1137250  0.3197130    0.00000       Uiso       1.00
      C111          C  0.3297760  0.3862750  0.3197130    0.00000       Uiso       1.00
      C112          C  0.8297749  0.8862760  0.3197130    0.00000       Uiso       1.00
      C113          C  0.3297760  0.6137260  0.6802890    0.00000       Uiso       1.00
      C114          C  0.8297749  0.1137250  0.6802890    0.00000       Uiso       1.00
      C115          C  0.6702220  0.3862750  0.6802890    0.00000       Uiso       1.00
      C116          C  0.1702230  0.8862760  0.6802890    0.00000       Uiso       1.00
      H117          H  0.8447750  0.8965560  0.8121180    0.00000       Uiso       1.00
      H118          H  0.3447760  0.3965560  0.8121180    0.00000       Uiso       1.00
      H119          H  0.1552230  0.1034450  0.8121180    0.00000       Uiso       1.00
      H120          H  0.6552220  0.6034450  0.8121180    0.00000       Uiso       1.00
      H121          H  0.1552230  0.8965560  0.1878840    0.00000       Uiso       1.00
      H122          H  0.6552220  0.3965560  0.1878840    0.00000       Uiso       1.00
      H123          H  0.8447750  0.1034450  0.1878840    0.00000       Uiso       1.00
      H124          H  0.3447760  0.6034450  0.1878840    0.00000       Uiso       1.00
      H125          H  0.1552230  0.1034450  0.1878840    0.00000       Uiso       1.00
      H126          H  0.6552220  0.6034450  0.1878840    0.00000       Uiso       1.00
      H127          H  0.8447750  0.8965560  0.1878840    0.00000       Uiso       1.00
      H128          H  0.3447760  0.3965560  0.1878840    0.00000       Uiso       1.00
      H129          H  0.8447750  0.1034450  0.8121180    0.00000       Uiso       1.00
      H130          H  0.3447760  0.6034450  0.8121180    0.00000       Uiso       1.00
      H131          H  0.1552230  0.8965560  0.8121180    0.00000       Uiso       1.00
      H132          H  0.6552220  0.3965560  0.8121180    0.00000       Uiso       1.00
      C133          C  0.7876320  0.8574500  0.6799910    0.00000       Uiso       1.00
      C134          C  0.2876320  0.3574490  0.6799910    0.00000       Uiso       1.00
      C135          C  0.2123670  0.1425510  0.6799910    0.00000       Uiso       1.00
      C136          C  0.7123660  0.6425520  0.6799910    0.00000       Uiso       1.00
      C137          C  0.2123670  0.8574500  0.3200110    0.00000       Uiso       1.00
      C138          C  0.7123660  0.3574490  0.3200110    0.00000       Uiso       1.00
      C139          C  0.7876320  0.1425510  0.3200110    0.00000       Uiso       1.00
      C140          C  0.2876320  0.6425520  0.3200110    0.00000       Uiso       1.00
      C141          C  0.2123670  0.1425510  0.3200110    0.00000       Uiso       1.00
      C142          C  0.7123660  0.6425520  0.3200110    0.00000       Uiso       1.00
      C143          C  0.7876320  0.8574500  0.3200110    0.00000       Uiso       1.00
      C144          C  0.2876320  0.3574490  0.3200110    0.00000       Uiso       1.00
      C145          C  0.7876320  0.1425510  0.6799910    0.00000       Uiso       1.00
      C146          C  0.2876320  0.6425520  0.6799910    0.00000       Uiso       1.00
      C147          C  0.2123670  0.8574500  0.6799910    0.00000       Uiso       1.00
      C148          C  0.7123660  0.3574490  0.6799910    0.00000       Uiso       1.00
      H149          H  0.7722880  0.8469850  0.8107000    0.00000       Uiso       1.00
      H150          H  0.2722890  0.3469840  0.8107000    0.00000       Uiso       1.00
      H151          H  0.2277110  0.1530170  0.8107000    0.00000       Uiso       1.00
      H152          H  0.7277100  0.6530170  0.8107000    0.00000       Uiso       1.00
      H153          H  0.2277110  0.8469850  0.1893030    0.00000       Uiso       1.00
      H154          H  0.7277100  0.3469840  0.1893030    0.00000       Uiso       1.00
      H155          H  0.7722880  0.1530170  0.1893030    0.00000       Uiso       1.00
      H156          H  0.2722890  0.6530170  0.1893030    0.00000       Uiso       1.00
      H157          H  0.2277110  0.1530170  0.1893030    0.00000       Uiso       1.00
      H158          H  0.7277100  0.6530170  0.1893030    0.00000       Uiso       1.00
      H159          H  0.7722880  0.8469850  0.1893030    0.00000       Uiso       1.00
      H160          H  0.2722890  0.3469840  0.1893030    0.00000       Uiso       1.00
      H161          H  0.7722880  0.1530170  0.8107000    0.00000       Uiso       1.00
      H162          H  0.2722890  0.6530170  0.8107000    0.00000       Uiso       1.00
      H163          H  0.2277110  0.8469850  0.8107000    0.00000       Uiso       1.00
      H164          H  0.7277100  0.3469840  0.8107000    0.00000       Uiso       1.00
      C165          C  0.7667330  0.8428390  0.5000010    0.00000       Uiso       1.00
      C166          C  0.2667340  0.3428390  0.5000010    0.00000       Uiso       1.00
      C167          C  0.2332650  0.1571620  0.5000010    0.00000       Uiso       1.00
      C168          C  0.7332640  0.6571630  0.5000010    0.00000       Uiso       1.00
      C169          C  0.2332650  0.8428390  0.5000010    0.00000       Uiso       1.00
      C170          C  0.7332640  0.3428390  0.5000010    0.00000       Uiso       1.00
      C171          C  0.7667330  0.1571620  0.5000010    0.00000       Uiso       1.00
      C172          C  0.2667340  0.6571630  0.5000010    0.00000       Uiso       1.00
      O173          O  0.1565760  0.7639560  0.5000010    0.00000       Uiso       1.00
      O174          O  0.6565750  0.2639550  0.5000010    0.00000       Uiso       1.00
      O175          O  0.8434230  0.2360460  0.5000010    0.00000       Uiso       1.00
      O176          O  0.3434230  0.7360460  0.5000010    0.00000       Uiso       1.00
      O177          O  0.8434230  0.7639560  0.5000010    0.00000       Uiso       1.00
      O178          O  0.3434230  0.2639550  0.5000010    0.00000       Uiso       1.00
      O179          O  0.1565760  0.2360460  0.5000010    0.00000       Uiso       1.00
      O180          O  0.6565750  0.7360460  0.5000010    0.00000       Uiso       1.00
      N181          N  0.0000000  0.9388580  0.5000010    0.00000       Uiso       1.00
      N182          N  0.4999990  0.4388580  0.5000010    0.00000       Uiso       1.00
      N183          N  0.0000000  0.0611430  0.5000010    0.00000       Uiso       1.00
      N184          N  0.4999990  0.5611430  0.5000010    0.00000       Uiso       1.00
      H185          H  0.0000000  0.0333900  0.5000010    0.00000       Uiso       1.00
     Cu186         Cu  0.5000000  0.5000000  0.5000000    0.00000       Uiso       1.00
