data_3D-Py-COF-2P
_audit_creation_date              2016-12-13
_audit_creation_method            'Materials Studio'
_symmetry_space_group_name_H-M    'P1'
_symmetry_Int_Tables_number       1
_symmetry_cell_setting            triclinic
loop_
_symmetry_equiv_pos_as_xyz
  x,y,z
_cell_length_a                    24.8910
_cell_length_b                    27.1822
_cell_length_c                    32.5284
_cell_angle_alpha                 90.0000
_cell_angle_beta                  90.0000
_cell_angle_gamma                 90.0000
loop_
_atom_site_label
_atom_site_type_symbol
_atom_site_fract_x
_atom_site_fract_y
_atom_site_fract_z
_atom_site_U_iso_or_equiv
_atom_site_adp_type
_atom_site_occupancy
H1     H     0.50000   0.77031   0.59142   0.00000  Uiso   1.00
H2     H     0.50000   0.59815   0.63424   0.00000  Uiso   1.00
H3     H     0.50000   0.65841   0.68367   0.00000  Uiso   1.00
H4     H     0.50000   0.75047   0.70592   0.00000  Uiso   1.00
H5     H     0.50000   0.88564   0.62173   0.00000  Uiso   1.00
H6     H     0.50000   0.96506   0.64677   0.00000  Uiso   1.00
H7     H     0.50000   0.91050   0.77194   0.00000  Uiso   1.00
H8     H     0.50000   0.17348   0.74346   0.00000  Uiso   1.00
C1     C     0.50000   0.55365   0.46168   0.00000  Uiso   1.00
C2     C     0.50000   0.60682   0.46066   0.00000  Uiso   1.00
C3     C     0.50000   0.64435   0.42277   0.00000  Uiso   1.00
C4     C     0.50000   0.73195   0.39943   0.00000  Uiso   1.00
C5     C     0.50000   0.71928   0.35813   0.00000  Uiso   1.00
C6     C     0.50000   0.75892   0.32659   0.00000  Uiso   1.00
N1     N     0.50000   0.80399   0.33983   0.00000  Uiso   1.00
C7     C     0.50000   0.85070   0.31968   0.00000  Uiso   1.00
C8     C     0.50000   0.85772   0.27713   0.00000  Uiso   1.00
C9     C     0.50000   0.89133   0.34529   0.00000  Uiso   1.00
C10    C     0.50000   0.90595   0.26114   0.00000  Uiso   1.00
C11    C     0.50000   0.93888   0.32973   0.00000  Uiso   1.00
C12    C     0.50000   0.94836   0.28704   0.00000  Uiso   1.00
C13    C     0.50000   0.30338   0.43014   0.00000  Uiso   1.00
C14    C     0.50000   0.33053   0.34833   0.00000  Uiso   1.00
C15    C     0.50000   0.52524   0.57370   0.00000  Uiso   1.00
H9     H     0.50000   0.71504   0.54087   0.00000  Uiso   1.00
C16    C     0.50000   0.63314   0.37945   0.00000  Uiso   1.00
H10    H     0.50000   0.46060   0.60325   0.00000  Uiso   1.00
H11    H     0.00000   0.27031   0.59142   0.00000  Uiso   1.00
H12    H     0.00000   0.09815   0.63424   0.00000  Uiso   1.00
H13    H     0.00000   0.15841   0.68367   0.00000  Uiso   1.00
H14    H     0.00000   0.25047   0.70592   0.00000  Uiso   1.00
H15    H     0.00000   0.38564   0.62173   0.00000  Uiso   1.00
H16    H     0.00000   0.46506   0.64677   0.00000  Uiso   1.00
H17    H     0.00000   0.41050   0.77194   0.00000  Uiso   1.00
H18    H     0.00000   0.67348   0.74346   0.00000  Uiso   1.00
C17    C     0.00000   0.05365   0.46168   0.00000  Uiso   1.00
C18    C     0.00000   0.10682   0.46066   0.00000  Uiso   1.00
C19    C     0.00000   0.14435   0.42277   0.00000  Uiso   1.00
C20    C     0.00000   0.23195   0.39943   0.00000  Uiso   1.00
C21    C     0.00000   0.21928   0.35813   0.00000  Uiso   1.00
C22    C     0.00000   0.25892   0.32659   0.00000  Uiso   1.00
N2     N     0.00000   0.30399   0.33983   0.00000  Uiso   1.00
C23    C     0.00000   0.35070   0.31968   0.00000  Uiso   1.00
C24    C     0.00000   0.35772   0.27713   0.00000  Uiso   1.00
C25    C     0.00000   0.39133   0.34529   0.00000  Uiso   1.00
C26    C     0.00000   0.40595   0.26114   0.00000  Uiso   1.00
C27    C     0.00000   0.43888   0.32973   0.00000  Uiso   1.00
C28    C     0.00000   0.44836   0.28704   0.00000  Uiso   1.00
C29    C     0.00000   0.80338   0.43014   0.00000  Uiso   1.00
C30    C     0.00000   0.83053   0.34833   0.00000  Uiso   1.00
C31    C     0.00000   0.02524   0.57370   0.00000  Uiso   1.00
H19    H     0.00000   0.21504   0.54087   0.00000  Uiso   1.00
C32    C     0.00000   0.13314   0.37945   0.00000  Uiso   1.00
H20    H     0.00000   0.96060   0.60325   0.00000  Uiso   1.00
H21    H     0.50000   0.22969   0.59142   0.00000  Uiso   1.00
H22    H     0.50000   0.40185   0.63424   0.00000  Uiso   1.00
H23    H     0.50000   0.34159   0.68367   0.00000  Uiso   1.00
H24    H     0.50000   0.24953   0.70592   0.00000  Uiso   1.00
H25    H     0.50000   0.11436   0.62173   0.00000  Uiso   1.00
H26    H     0.50000   0.03494   0.64677   0.00000  Uiso   1.00
H27    H     0.50000   0.08950   0.77194   0.00000  Uiso   1.00
H28    H     0.50000   0.82652   0.74346   0.00000  Uiso   1.00
C33    C     0.50000   0.44635   0.46168   0.00000  Uiso   1.00
C34    C     0.50000   0.39318   0.46066   0.00000  Uiso   1.00
C35    C     0.50000   0.35565   0.42277   0.00000  Uiso   1.00
C36    C     0.50000   0.26805   0.39943   0.00000  Uiso   1.00
C37    C     0.50000   0.28072   0.35813   0.00000  Uiso   1.00
C38    C     0.50000   0.24108   0.32659   0.00000  Uiso   1.00
N3     N     0.50000   0.19601   0.33983   0.00000  Uiso   1.00
C39    C     0.50000   0.14930   0.31968   0.00000  Uiso   1.00
C40    C     0.50000   0.14228   0.27713   0.00000  Uiso   1.00
C41    C     0.50000   0.10867   0.34529   0.00000  Uiso   1.00
C42    C     0.50000   0.09405   0.26114   0.00000  Uiso   1.00
C43    C     0.50000   0.06112   0.32973   0.00000  Uiso   1.00
C44    C     0.50000   0.05164   0.28704   0.00000  Uiso   1.00
C45    C     0.50000   0.69662   0.43014   0.00000  Uiso   1.00
C46    C     0.50000   0.66947   0.34833   0.00000  Uiso   1.00
C47    C     0.50000   0.47476   0.57370   0.00000  Uiso   1.00
H29    H     0.50000   0.28496   0.54087   0.00000  Uiso   1.00
C48    C     0.50000   0.36686   0.37945   0.00000  Uiso   1.00
H30    H     0.50000   0.53940   0.60325   0.00000  Uiso   1.00
H31    H     0.00000   0.72969   0.59142   0.00000  Uiso   1.00
H32    H     0.00000   0.90185   0.63424   0.00000  Uiso   1.00
H33    H     0.00000   0.84159   0.68367   0.00000  Uiso   1.00
H34    H     0.00000   0.74953   0.70592   0.00000  Uiso   1.00
H35    H     0.00000   0.61436   0.62173   0.00000  Uiso   1.00
H36    H     0.00000   0.53494   0.64677   0.00000  Uiso   1.00
H37    H     0.00000   0.58950   0.77194   0.00000  Uiso   1.00
H38    H     0.00000   0.32652   0.74346   0.00000  Uiso   1.00
C49    C     0.00000   0.94635   0.46168   0.00000  Uiso   1.00
C50    C     0.00000   0.89318   0.46066   0.00000  Uiso   1.00
C51    C     0.00000   0.85565   0.42277   0.00000  Uiso   1.00
C52    C     0.00000   0.76805   0.39943   0.00000  Uiso   1.00
C53    C     0.00000   0.78072   0.35813   0.00000  Uiso   1.00
C54    C     0.00000   0.74108   0.32659   0.00000  Uiso   1.00
N4     N     0.00000   0.69601   0.33983   0.00000  Uiso   1.00
C55    C     0.00000   0.64930   0.31968   0.00000  Uiso   1.00
C56    C     0.00000   0.64228   0.27713   0.00000  Uiso   1.00
C57    C     0.00000   0.60867   0.34529   0.00000  Uiso   1.00
C58    C     0.00000   0.59405   0.26114   0.00000  Uiso   1.00
C59    C     0.00000   0.56112   0.32973   0.00000  Uiso   1.00
C60    C     0.00000   0.55164   0.28704   0.00000  Uiso   1.00
C61    C     0.00000   0.19662   0.43014   0.00000  Uiso   1.00
C62    C     0.00000   0.16947   0.34833   0.00000  Uiso   1.00
C63    C     0.00000   0.97476   0.57370   0.00000  Uiso   1.00
H39    H     0.00000   0.78496   0.54087   0.00000  Uiso   1.00
C64    C     0.00000   0.86686   0.37945   0.00000  Uiso   1.00
H40    H     0.00000   0.03940   0.60325   0.00000  Uiso   1.00
H41    H     0.50000   0.77031   0.40858   0.00000  Uiso   1.00
H42    H     0.50000   0.59815   0.36576   0.00000  Uiso   1.00
H43    H     0.50000   0.65841   0.31633   0.00000  Uiso   1.00
H44    H     0.50000   0.75047   0.29408   0.00000  Uiso   1.00
H45    H     0.50000   0.88564   0.37827   0.00000  Uiso   1.00
H46    H     0.50000   0.96506   0.35323   0.00000  Uiso   1.00
H47    H     0.50000   0.91050   0.22806   0.00000  Uiso   1.00
H48    H     0.50000   0.17348   0.25654   0.00000  Uiso   1.00
C65    C     0.50000   0.55365   0.53832   0.00000  Uiso   1.00
C66    C     0.50000   0.60682   0.53934   0.00000  Uiso   1.00
C67    C     0.50000   0.64435   0.57723   0.00000  Uiso   1.00
C68    C     0.50000   0.73195   0.60057   0.00000  Uiso   1.00
C69    C     0.50000   0.71928   0.64187   0.00000  Uiso   1.00
C70    C     0.50000   0.75892   0.67341   0.00000  Uiso   1.00
N5     N     0.50000   0.80399   0.66017   0.00000  Uiso   1.00
C71    C     0.50000   0.85070   0.68032   0.00000  Uiso   1.00
C72    C     0.50000   0.85772   0.72287   0.00000  Uiso   1.00
C73    C     0.50000   0.89133   0.65471   0.00000  Uiso   1.00
C74    C     0.50000   0.90595   0.73886   0.00000  Uiso   1.00
C75    C     0.50000   0.93888   0.67027   0.00000  Uiso   1.00
C76    C     0.50000   0.94836   0.71296   0.00000  Uiso   1.00
C77    C     0.50000   0.30338   0.56986   0.00000  Uiso   1.00
C78    C     0.50000   0.33053   0.65167   0.00000  Uiso   1.00
C79    C     0.50000   0.52524   0.42630   0.00000  Uiso   1.00
H49    H     0.50000   0.71504   0.45913   0.00000  Uiso   1.00
C80    C     0.50000   0.63314   0.62055   0.00000  Uiso   1.00
H50    H     0.50000   0.46060   0.39675   0.00000  Uiso   1.00
H51    H     0.00000   0.27031   0.40858   0.00000  Uiso   1.00
H52    H     0.00000   0.09815   0.36576   0.00000  Uiso   1.00
H53    H     0.00000   0.15841   0.31633   0.00000  Uiso   1.00
H54    H     0.00000   0.25047   0.29408   0.00000  Uiso   1.00
H55    H     0.00000   0.38564   0.37827   0.00000  Uiso   1.00
H56    H     0.00000   0.46506   0.35323   0.00000  Uiso   1.00
H57    H     0.00000   0.41050   0.22806   0.00000  Uiso   1.00
H58    H     0.00000   0.67348   0.25654   0.00000  Uiso   1.00
C81    C     0.00000   0.05365   0.53832   0.00000  Uiso   1.00
C82    C     0.00000   0.10682   0.53934   0.00000  Uiso   1.00
C83    C     0.00000   0.14435   0.57723   0.00000  Uiso   1.00
C84    C     0.00000   0.23195   0.60057   0.00000  Uiso   1.00
C85    C     0.00000   0.21928   0.64187   0.00000  Uiso   1.00
C86    C     0.00000   0.25892   0.67341   0.00000  Uiso   1.00
N6     N     0.00000   0.30399   0.66017   0.00000  Uiso   1.00
C87    C     0.00000   0.35070   0.68032   0.00000  Uiso   1.00
C88    C     0.00000   0.35772   0.72287   0.00000  Uiso   1.00
C89    C     0.00000   0.39133   0.65471   0.00000  Uiso   1.00
C90    C     0.00000   0.40595   0.73886   0.00000  Uiso   1.00
C91    C     0.00000   0.43888   0.67027   0.00000  Uiso   1.00
C92    C     0.00000   0.44836   0.71296   0.00000  Uiso   1.00
C93    C     0.00000   0.80338   0.56986   0.00000  Uiso   1.00
C94    C     0.00000   0.83053   0.65167   0.00000  Uiso   1.00
C95    C     0.00000   0.02524   0.42630   0.00000  Uiso   1.00
H59    H     0.00000   0.21504   0.45913   0.00000  Uiso   1.00
C96    C     0.00000   0.13314   0.62055   0.00000  Uiso   1.00
H60    H     0.00000   0.96060   0.39675   0.00000  Uiso   1.00
H61    H     0.50000   0.22969   0.40858   0.00000  Uiso   1.00
H62    H     0.50000   0.40185   0.36576   0.00000  Uiso   1.00
H63    H     0.50000   0.34159   0.31633   0.00000  Uiso   1.00
H64    H     0.50000   0.24953   0.29408   0.00000  Uiso   1.00
H65    H     0.50000   0.11436   0.37827   0.00000  Uiso   1.00
H66    H     0.50000   0.03494   0.35323   0.00000  Uiso   1.00
H67    H     0.50000   0.08950   0.22806   0.00000  Uiso   1.00
H68    H     0.50000   0.82652   0.25654   0.00000  Uiso   1.00
C97    C     0.50000   0.44635   0.53832   0.00000  Uiso   1.00
C98    C     0.50000   0.39318   0.53934   0.00000  Uiso   1.00
C99    C     0.50000   0.35565   0.57723   0.00000  Uiso   1.00
C100   C     0.50000   0.26805   0.60057   0.00000  Uiso   1.00
C101   C     0.50000   0.28072   0.64187   0.00000  Uiso   1.00
C102   C     0.50000   0.24108   0.67341   0.00000  Uiso   1.00
N7     N     0.50000   0.19601   0.66017   0.00000  Uiso   1.00
C103   C     0.50000   0.14930   0.68032   0.00000  Uiso   1.00
C104   C     0.50000   0.14228   0.72287   0.00000  Uiso   1.00
C105   C     0.50000   0.10867   0.65471   0.00000  Uiso   1.00
C106   C     0.50000   0.09405   0.73886   0.00000  Uiso   1.00
C107   C     0.50000   0.06112   0.67027   0.00000  Uiso   1.00
C108   C     0.50000   0.05164   0.71296   0.00000  Uiso   1.00
C109   C     0.50000   0.69662   0.56986   0.00000  Uiso   1.00
C110   C     0.50000   0.66947   0.65167   0.00000  Uiso   1.00
C111   C     0.50000   0.47476   0.42630   0.00000  Uiso   1.00
H69    H     0.50000   0.28496   0.45913   0.00000  Uiso   1.00
C112   C     0.50000   0.36686   0.62055   0.00000  Uiso   1.00
H70    H     0.50000   0.53940   0.39675   0.00000  Uiso   1.00
H71    H     0.00000   0.72969   0.40858   0.00000  Uiso   1.00
H72    H     0.00000   0.90185   0.36576   0.00000  Uiso   1.00
H73    H     0.00000   0.84159   0.31633   0.00000  Uiso   1.00
H74    H     0.00000   0.74953   0.29408   0.00000  Uiso   1.00
H75    H     0.00000   0.61436   0.37827   0.00000  Uiso   1.00
H76    H     0.00000   0.53494   0.35323   0.00000  Uiso   1.00
H77    H     0.00000   0.58950   0.22806   0.00000  Uiso   1.00
H78    H     0.00000   0.32652   0.25654   0.00000  Uiso   1.00
C113   C     0.00000   0.94635   0.53832   0.00000  Uiso   1.00
C114   C     0.00000   0.89318   0.53934   0.00000  Uiso   1.00
C115   C     0.00000   0.85565   0.57723   0.00000  Uiso   1.00
C116   C     0.00000   0.76805   0.60057   0.00000  Uiso   1.00
C117   C     0.00000   0.78072   0.64187   0.00000  Uiso   1.00
C118   C     0.00000   0.74108   0.67341   0.00000  Uiso   1.00
N8     N     0.00000   0.69601   0.66017   0.00000  Uiso   1.00
C119   C     0.00000   0.64930   0.68032   0.00000  Uiso   1.00
C120   C     0.00000   0.64228   0.72287   0.00000  Uiso   1.00
C121   C     0.00000   0.60867   0.65471   0.00000  Uiso   1.00
C122   C     0.00000   0.59405   0.73886   0.00000  Uiso   1.00
C123   C     0.00000   0.56112   0.67027   0.00000  Uiso   1.00
C124   C     0.00000   0.55164   0.71296   0.00000  Uiso   1.00
C125   C     0.00000   0.19662   0.56986   0.00000  Uiso   1.00
C126   C     0.00000   0.16947   0.65167   0.00000  Uiso   1.00
C127   C     0.00000   0.97476   0.42630   0.00000  Uiso   1.00
H79    H     0.00000   0.78496   0.45913   0.00000  Uiso   1.00
C128   C     0.00000   0.86686   0.62055   0.00000  Uiso   1.00
H80    H     0.00000   0.03940   0.39675   0.00000  Uiso   1.00
H81    H     0.24008   0.00000   0.12539   0.00000  Uiso   1.00
H82    H     0.05707   0.00000   0.18073   0.00000  Uiso   1.00
H83    H     0.12937   0.00000   0.22560   0.00000  Uiso   1.00
H84    H     0.23035   0.00000   0.24082   0.00000  Uiso   1.00
H85    H     0.37393   0.00000   0.15257   0.00000  Uiso   1.00
H86    H     0.46162   0.00000   0.17714   0.00000  Uiso   1.00
H87    H     0.40314   0.00000   0.30259   0.00000  Uiso   1.00
H88    H     0.68849   0.00000   0.27510   0.00000  Uiso   1.00
C129   C     0.04965   0.00000   0.95476   0.00000  Uiso   1.00
C130   C     0.09535   0.00000   0.97895   0.00000  Uiso   1.00
C131   C     0.10145   0.00000   0.87947   0.00000  Uiso   1.00
C132   C     0.19926   0.00000   0.86290   0.00000  Uiso   1.00
C133   C     0.19045   0.00000   0.82079   0.00000  Uiso   1.00
C134   C     0.23680   0.00000   0.79208   0.00000  Uiso   1.00
N9     N     0.28486   0.00000   0.80768   0.00000  Uiso   1.00
C135   C     0.33660   0.00000   0.78847   0.00000  Uiso   1.00
C136   C     0.34505   0.00000   0.74598   0.00000  Uiso   1.00
C137   C     0.38064   0.00000   0.81453   0.00000  Uiso   1.00
C138   C     0.39779   0.00000   0.73046   0.00000  Uiso   1.00
C139   C     0.43291   0.00000   0.79934   0.00000  Uiso   1.00
C140   C     0.44368   0.00000   0.75669   0.00000  Uiso   1.00
C141   C     0.84302   0.00000   0.89093   0.00000  Uiso   1.00
C142   C     0.86237   0.00000   0.80712   0.00000  Uiso   1.00
C143   C     0.05118   0.00000   0.09000   0.00000  Uiso   1.00
H89    H     0.13387   0.00000   0.96794   0.00000  Uiso   1.00
H90    H     0.17439   0.00000   0.07993   0.00000  Uiso   1.00
C144   C     0.90535   0.00000   0.83524   0.00000  Uiso   1.00
H91    H     0.74008   0.50000   0.12539   0.00000  Uiso   1.00
H92    H     0.55707   0.50000   0.18073   0.00000  Uiso   1.00
H93    H     0.62937   0.50000   0.22560   0.00000  Uiso   1.00
H94    H     0.73035   0.50000   0.24082   0.00000  Uiso   1.00
H95    H     0.87393   0.50000   0.15257   0.00000  Uiso   1.00
H96    H     0.96162   0.50000   0.17714   0.00000  Uiso   1.00
H97    H     0.90314   0.50000   0.30259   0.00000  Uiso   1.00
H98    H     0.18849   0.50000   0.27510   0.00000  Uiso   1.00
C145   C     0.54965   0.50000   0.95476   0.00000  Uiso   1.00
C146   C     0.59535   0.50000   0.97895   0.00000  Uiso   1.00
C147   C     0.60145   0.50000   0.87947   0.00000  Uiso   1.00
C148   C     0.69926   0.50000   0.86290   0.00000  Uiso   1.00
C149   C     0.69045   0.50000   0.82079   0.00000  Uiso   1.00
C150   C     0.73680   0.50000   0.79208   0.00000  Uiso   1.00
N10    N     0.78486   0.50000   0.80768   0.00000  Uiso   1.00
C151   C     0.83660   0.50000   0.78847   0.00000  Uiso   1.00
C152   C     0.84505   0.50000   0.74598   0.00000  Uiso   1.00
C153   C     0.88064   0.50000   0.81453   0.00000  Uiso   1.00
C154   C     0.89779   0.50000   0.73046   0.00000  Uiso   1.00
C155   C     0.93291   0.50000   0.79934   0.00000  Uiso   1.00
C156   C     0.94368   0.50000   0.75669   0.00000  Uiso   1.00
C157   C     0.34302   0.50000   0.89093   0.00000  Uiso   1.00
C158   C     0.36237   0.50000   0.80712   0.00000  Uiso   1.00
C159   C     0.55118   0.50000   0.09000   0.00000  Uiso   1.00
H99    H     0.63387   0.50000   0.96794   0.00000  Uiso   1.00
H100   H     0.67439   0.50000   0.07993   0.00000  Uiso   1.00
C160   C     0.40535   0.50000   0.83524   0.00000  Uiso   1.00
H101   H     0.75992   0.00000   0.12539   0.00000  Uiso   1.00
H102   H     0.94293   0.00000   0.18073   0.00000  Uiso   1.00
H103   H     0.87063   0.00000   0.22560   0.00000  Uiso   1.00
H104   H     0.76965   0.00000   0.24082   0.00000  Uiso   1.00
H105   H     0.62607   0.00000   0.15257   0.00000  Uiso   1.00
H106   H     0.53838   0.00000   0.17714   0.00000  Uiso   1.00
H107   H     0.59686   0.00000   0.30259   0.00000  Uiso   1.00
H108   H     0.31151   0.00000   0.27510   0.00000  Uiso   1.00
C161   C     0.95035   0.00000   0.95476   0.00000  Uiso   1.00
C162   C     0.90465   0.00000   0.97895   0.00000  Uiso   1.00
C163   C     0.89855   0.00000   0.87947   0.00000  Uiso   1.00
C164   C     0.80074   0.00000   0.86290   0.00000  Uiso   1.00
C165   C     0.80955   0.00000   0.82079   0.00000  Uiso   1.00
C166   C     0.76320   0.00000   0.79208   0.00000  Uiso   1.00
N11    N     0.71514   0.00000   0.80768   0.00000  Uiso   1.00
C167   C     0.66340   0.00000   0.78847   0.00000  Uiso   1.00
C168   C     0.65495   0.00000   0.74598   0.00000  Uiso   1.00
C169   C     0.61936   0.00000   0.81453   0.00000  Uiso   1.00
C170   C     0.60221   0.00000   0.73046   0.00000  Uiso   1.00
C171   C     0.56709   0.00000   0.79934   0.00000  Uiso   1.00
C172   C     0.55632   0.00000   0.75669   0.00000  Uiso   1.00
C173   C     0.15698   0.00000   0.89093   0.00000  Uiso   1.00
C174   C     0.13763   0.00000   0.80712   0.00000  Uiso   1.00
C175   C     0.94882   0.00000   0.09000   0.00000  Uiso   1.00
H109   H     0.86613   0.00000   0.96794   0.00000  Uiso   1.00
H110   H     0.82561   0.00000   0.07993   0.00000  Uiso   1.00
C176   C     0.09465   0.00000   0.83524   0.00000  Uiso   1.00
H111   H     0.25992   0.50000   0.12539   0.00000  Uiso   1.00
H112   H     0.44293   0.50000   0.18073   0.00000  Uiso   1.00
H113   H     0.37063   0.50000   0.22560   0.00000  Uiso   1.00
H114   H     0.26965   0.50000   0.24082   0.00000  Uiso   1.00
H115   H     0.12607   0.50000   0.15257   0.00000  Uiso   1.00
H116   H     0.03838   0.50000   0.17714   0.00000  Uiso   1.00
H117   H     0.09686   0.50000   0.30259   0.00000  Uiso   1.00
H118   H     0.81151   0.50000   0.27510   0.00000  Uiso   1.00
C177   C     0.45035   0.50000   0.95476   0.00000  Uiso   1.00
C178   C     0.40465   0.50000   0.97895   0.00000  Uiso   1.00
C179   C     0.39855   0.50000   0.87947   0.00000  Uiso   1.00
C180   C     0.30074   0.50000   0.86290   0.00000  Uiso   1.00
C181   C     0.30955   0.50000   0.82079   0.00000  Uiso   1.00
C182   C     0.26320   0.50000   0.79208   0.00000  Uiso   1.00
N12    N     0.21514   0.50000   0.80768   0.00000  Uiso   1.00
C183   C     0.16340   0.50000   0.78847   0.00000  Uiso   1.00
C184   C     0.15495   0.50000   0.74598   0.00000  Uiso   1.00
C185   C     0.11936   0.50000   0.81453   0.00000  Uiso   1.00
C186   C     0.10221   0.50000   0.73046   0.00000  Uiso   1.00
C187   C     0.06709   0.50000   0.79934   0.00000  Uiso   1.00
C188   C     0.05632   0.50000   0.75669   0.00000  Uiso   1.00
C189   C     0.65698   0.50000   0.89093   0.00000  Uiso   1.00
C190   C     0.63763   0.50000   0.80712   0.00000  Uiso   1.00
C191   C     0.44882   0.50000   0.09000   0.00000  Uiso   1.00
H119   H     0.36613   0.50000   0.96794   0.00000  Uiso   1.00
H120   H     0.32561   0.50000   0.07993   0.00000  Uiso   1.00
C192   C     0.59465   0.50000   0.83524   0.00000  Uiso   1.00
H121   H     0.75992   0.00000   0.87461   0.00000  Uiso   1.00
H122   H     0.94293   0.00000   0.81927   0.00000  Uiso   1.00
H123   H     0.87063   0.00000   0.77440   0.00000  Uiso   1.00
H124   H     0.76965   0.00000   0.75918   0.00000  Uiso   1.00
H125   H     0.62607   0.00000   0.84743   0.00000  Uiso   1.00
H126   H     0.53838   0.00000   0.82286   0.00000  Uiso   1.00
H127   H     0.59686   0.00000   0.69741   0.00000  Uiso   1.00
H128   H     0.31151   0.00000   0.72490   0.00000  Uiso   1.00
C193   C     0.95035   0.00000   0.04524   0.00000  Uiso   1.00
C194   C     0.90465   0.00000   0.02105   0.00000  Uiso   1.00
C195   C     0.89855   0.00000   0.12053   0.00000  Uiso   1.00
C196   C     0.80074   0.00000   0.13710   0.00000  Uiso   1.00
C197   C     0.80955   0.00000   0.17921   0.00000  Uiso   1.00
C198   C     0.76320   0.00000   0.20792   0.00000  Uiso   1.00
N13    N     0.71514   0.00000   0.19232   0.00000  Uiso   1.00
C199   C     0.66340   0.00000   0.21153   0.00000  Uiso   1.00
C200   C     0.65495   0.00000   0.25402   0.00000  Uiso   1.00
C201   C     0.61936   0.00000   0.18547   0.00000  Uiso   1.00
C202   C     0.60221   0.00000   0.26954   0.00000  Uiso   1.00
C203   C     0.56709   0.00000   0.20066   0.00000  Uiso   1.00
C204   C     0.55632   0.00000   0.24331   0.00000  Uiso   1.00
C205   C     0.15698   0.00000   0.10907   0.00000  Uiso   1.00
C206   C     0.13763   0.00000   0.19288   0.00000  Uiso   1.00
C207   C     0.94882   0.00000   0.91000   0.00000  Uiso   1.00
H129   H     0.86613   0.00000   0.03206   0.00000  Uiso   1.00
H130   H     0.82561   0.00000   0.92007   0.00000  Uiso   1.00
C208   C     0.09465   0.00000   0.16476   0.00000  Uiso   1.00
H131   H     0.25992   0.50000   0.87461   0.00000  Uiso   1.00
H132   H     0.44293   0.50000   0.81927   0.00000  Uiso   1.00
H133   H     0.37063   0.50000   0.77440   0.00000  Uiso   1.00
H134   H     0.26965   0.50000   0.75918   0.00000  Uiso   1.00
H135   H     0.12607   0.50000   0.84743   0.00000  Uiso   1.00
H136   H     0.03838   0.50000   0.82286   0.00000  Uiso   1.00
H137   H     0.09686   0.50000   0.69741   0.00000  Uiso   1.00
H138   H     0.81151   0.50000   0.72490   0.00000  Uiso   1.00
C209   C     0.45035   0.50000   0.04524   0.00000  Uiso   1.00
C210   C     0.40465   0.50000   0.02105   0.00000  Uiso   1.00
C211   C     0.39855   0.50000   0.12053   0.00000  Uiso   1.00
C212   C     0.30074   0.50000   0.13710   0.00000  Uiso   1.00
C213   C     0.30955   0.50000   0.17921   0.00000  Uiso   1.00
C214   C     0.26320   0.50000   0.20792   0.00000  Uiso   1.00
N14    N     0.21514   0.50000   0.19232   0.00000  Uiso   1.00
C215   C     0.16340   0.50000   0.21153   0.00000  Uiso   1.00
C216   C     0.15495   0.50000   0.25402   0.00000  Uiso   1.00
C217   C     0.11936   0.50000   0.18547   0.00000  Uiso   1.00
C218   C     0.10221   0.50000   0.26954   0.00000  Uiso   1.00
C219   C     0.06709   0.50000   0.20066   0.00000  Uiso   1.00
C220   C     0.05632   0.50000   0.24331   0.00000  Uiso   1.00
C221   C     0.65698   0.50000   0.10907   0.00000  Uiso   1.00
C222   C     0.63763   0.50000   0.19288   0.00000  Uiso   1.00
C223   C     0.44882   0.50000   0.91000   0.00000  Uiso   1.00
H139   H     0.36613   0.50000   0.03206   0.00000  Uiso   1.00
H140   H     0.32561   0.50000   0.92007   0.00000  Uiso   1.00
C224   C     0.59465   0.50000   0.16476   0.00000  Uiso   1.00
H141   H     0.24008   0.00000   0.87461   0.00000  Uiso   1.00
H142   H     0.05707   0.00000   0.81927   0.00000  Uiso   1.00
H143   H     0.12937   0.00000   0.77440   0.00000  Uiso   1.00
H144   H     0.23035   0.00000   0.75918   0.00000  Uiso   1.00
H145   H     0.37393   0.00000   0.84743   0.00000  Uiso   1.00
H146   H     0.46162   0.00000   0.82286   0.00000  Uiso   1.00
H147   H     0.40314   0.00000   0.69741   0.00000  Uiso   1.00
H148   H     0.68849   0.00000   0.72490   0.00000  Uiso   1.00
C225   C     0.04965   0.00000   0.04524   0.00000  Uiso   1.00
C226   C     0.09535   0.00000   0.02105   0.00000  Uiso   1.00
C227   C     0.10145   0.00000   0.12053   0.00000  Uiso   1.00
C228   C     0.19926   0.00000   0.13710   0.00000  Uiso   1.00
C229   C     0.19045   0.00000   0.17921   0.00000  Uiso   1.00
C230   C     0.23680   0.00000   0.20792   0.00000  Uiso   1.00
N15    N     0.28486   0.00000   0.19232   0.00000  Uiso   1.00
C231   C     0.33660   0.00000   0.21153   0.00000  Uiso   1.00
C232   C     0.34505   0.00000   0.25402   0.00000  Uiso   1.00
C233   C     0.38064   0.00000   0.18547   0.00000  Uiso   1.00
C234   C     0.39779   0.00000   0.26954   0.00000  Uiso   1.00
C235   C     0.43291   0.00000   0.20066   0.00000  Uiso   1.00
C236   C     0.44368   0.00000   0.24331   0.00000  Uiso   1.00
C237   C     0.84302   0.00000   0.10907   0.00000  Uiso   1.00
C238   C     0.86237   0.00000   0.19288   0.00000  Uiso   1.00
C239   C     0.05118   0.00000   0.91000   0.00000  Uiso   1.00
H149   H     0.13387   0.00000   0.03206   0.00000  Uiso   1.00
H150   H     0.17439   0.00000   0.92007   0.00000  Uiso   1.00
C240   C     0.90535   0.00000   0.16476   0.00000  Uiso   1.00
H151   H     0.74008   0.50000   0.87461   0.00000  Uiso   1.00
H152   H     0.55707   0.50000   0.81927   0.00000  Uiso   1.00
H153   H     0.62937   0.50000   0.77440   0.00000  Uiso   1.00
H154   H     0.73035   0.50000   0.75918   0.00000  Uiso   1.00
H155   H     0.87393   0.50000   0.84743   0.00000  Uiso   1.00
H156   H     0.96162   0.50000   0.82286   0.00000  Uiso   1.00
H157   H     0.90314   0.50000   0.69741   0.00000  Uiso   1.00
H158   H     0.18849   0.50000   0.72490   0.00000  Uiso   1.00
C241   C     0.54965   0.50000   0.04524   0.00000  Uiso   1.00
C242   C     0.59535   0.50000   0.02105   0.00000  Uiso   1.00
C243   C     0.60145   0.50000   0.12053   0.00000  Uiso   1.00
C244   C     0.69926   0.50000   0.13710   0.00000  Uiso   1.00
C245   C     0.69045   0.50000   0.17921   0.00000  Uiso   1.00
C246   C     0.73680   0.50000   0.20792   0.00000  Uiso   1.00
N16    N     0.78486   0.50000   0.19232   0.00000  Uiso   1.00
C247   C     0.83660   0.50000   0.21153   0.00000  Uiso   1.00
C248   C     0.84505   0.50000   0.25402   0.00000  Uiso   1.00
C249   C     0.88064   0.50000   0.18547   0.00000  Uiso   1.00
C250   C     0.89779   0.50000   0.26954   0.00000  Uiso   1.00
C251   C     0.93291   0.50000   0.20066   0.00000  Uiso   1.00
C252   C     0.94368   0.50000   0.24331   0.00000  Uiso   1.00
C253   C     0.34302   0.50000   0.10907   0.00000  Uiso   1.00
C254   C     0.36237   0.50000   0.19288   0.00000  Uiso   1.00
C255   C     0.55118   0.50000   0.91000   0.00000  Uiso   1.00
H159   H     0.63387   0.50000   0.03206   0.00000  Uiso   1.00
H160   H     0.67439   0.50000   0.92007   0.00000  Uiso   1.00
C256   C     0.40535   0.50000   0.16476   0.00000  Uiso   1.00
C257   C     0.50000   0.00000   0.73489   0.00000  Uiso   1.00
C258   C     0.00000   0.50000   0.73489   0.00000  Uiso   1.00
C259   C     0.50000   0.00000   0.26511   0.00000  Uiso   1.00
C260   C     0.00000   0.50000   0.26511   0.00000  Uiso   1.00
C261   C     0.00000   0.00000   0.02281   0.00000  Uiso   1.00
C262   C     0.00000   0.00000   0.89126   0.00000  Uiso   1.00
H161   H     0.00000   0.00000   0.85989   0.00000  Uiso   1.00
C263   C     0.50000   0.50000   0.02281   0.00000  Uiso   1.00
C264   C     0.50000   0.50000   0.89126   0.00000  Uiso   1.00
H162   H     0.50000   0.50000   0.85989   0.00000  Uiso   1.00
C265   C     0.00000   0.00000   0.97719   0.00000  Uiso   1.00
C266   C     0.00000   0.00000   0.10874   0.00000  Uiso   1.00
H163   H     0.00000   0.00000   0.14011   0.00000  Uiso   1.00
C267   C     0.50000   0.50000   0.97719   0.00000  Uiso   1.00
C268   C     0.50000   0.50000   0.10874   0.00000  Uiso   1.00
H164   H     0.50000   0.50000   0.14011   0.00000  Uiso   1.00
C269   C     0.50000   0.47299   0.50000   0.00000  Uiso   1.00
C270   C     0.50000   0.37157   0.50000   0.00000  Uiso   1.00
H165   H     0.50000   0.33494   0.50000   0.00000  Uiso   1.00
C271   C     0.00000   0.97299   0.50000   0.00000  Uiso   1.00
C272   C     0.00000   0.87157   0.50000   0.00000  Uiso   1.00
H166   H     0.00000   0.83494   0.50000   0.00000  Uiso   1.00
C273   C     0.50000   0.52701   0.50000   0.00000  Uiso   1.00
C274   C     0.50000   0.62843   0.50000   0.00000  Uiso   1.00
H167   H     0.50000   0.66506   0.50000   0.00000  Uiso   1.00
C275   C     0.00000   0.02701   0.50000   0.00000  Uiso   1.00
C276   C     0.00000   0.12843   0.50000   0.00000  Uiso   1.00
H168   H     0.00000   0.16506   0.50000   0.00000  Uiso   1.00
loop_
_geom_bond_atom_site_label_1
_geom_bond_atom_site_label_2
_geom_bond_distance
_geom_bond_site_symmetry_2
_ccdc_geom_bond_type
H1     C68     1.084   .     S
H2     C80     1.050   .     S
H3     C110    1.083   .     S
H4     C70     1.082   .     S
H5     C73     1.084   .     S
H6     C75     1.044   .     S
H7     C74     1.083   .     S
H8     C104    1.081   .     S
C1     C2      1.446   .     S
C1     C79     1.386   .     S
C1     C273    1.442   .     S
C2     C3      1.600   .     S
C2     C274    1.408   .     S
C3     C45     1.441   .     S
C3     C16     1.442   .     S
C4     H41     1.084   .     S
C4     C45     1.386   .     S
C4     C5      1.387   .     S
C5     C46     1.391   .     S
C5     C6      1.488   .     S
C6     H44     1.082   .     S
C6     N1      1.299   .     S
N1     C7      1.429   .     S
C7     C8      1.397   .     S
C7     C9      1.383   .     S
C8     C10     1.410   .     S
C8     H68     1.081   .     S
C9     H45     1.084   .     S
C9     C11     1.388   .     S
C10    H47     1.083   .     S
C10    C12     1.428   .     S
C11    H46     1.044   .     S
C11    C12     1.412   .     S
C13    C36     1.386   .     S
C13    C35     1.441   .     S
C13    H69     1.068   .     S
C14    C48     1.414   .     S
C14    C37     1.391   .     S
C14    H63     1.083   .     S
C15    C47     1.372   .     S
C15    C65     1.386   .     S
C15    H30     1.035   .     S
H9     C109    1.068   .     S
C16    H42     1.050   .     S
C16    C46     1.414   .     S
H10    C47     1.035   .     S
H11    C84     1.084   .     S
H12    C96     1.050   .     S
H13    C126    1.083   .     S
H14    C86     1.082   .     S
H15    C89     1.084   .     S
H16    C91     1.044   .     S
H17    C90     1.083   .     S
H18    C120    1.081   .     S
C17    C18     1.446   .     S
C17    C95     1.386   .     S
C17    C275    1.442   .     S
C18    C19     1.600   .     S
C18    C276    1.408   .     S
C19    C61     1.441   .     S
C19    C32     1.442   .     S
C20    C61     1.386   .     S
C20    H51     1.084   .     S
C20    C21     1.387   .     S
C21    C62     1.391   .     S
C21    C22     1.488   .     S
C22    H54     1.082   .     S
C22    N2      1.299   .     S
N2     C23     1.429   .     S
C23    C24     1.397   .     S
C23    C25     1.383   .     S
C24    C26     1.410   .     S
C24    H78     1.081   .     S
C25    C27     1.388   .     S
C25    H55     1.084   .     S
C26    H57     1.083   .     S
C26    C28     1.428   .     S
C27    H56     1.044   .     S
C27    C28     1.412   .     S
C28    C260    1.575   .     S
C29    C51     1.441   .     S
C29    C52     1.386   .     S
C29    H79     1.068   .     S
C30    C64     1.414   .     S
C30    C53     1.391   .     S
C30    H73     1.083   .     S
C31    C81     1.386   .     S
C31    H40     1.035   .     S
H19    C125    1.068   .     S
C32    C62     1.414   .     S
C32    H52     1.050   .     S
H20    C63     1.035   .     S
H21    C100    1.084   .     S
H22    C112    1.050   .     S
H23    C78     1.083   .     S
H24    C102    1.082   .     S
H25    C105    1.084   .     S
H26    C107    1.044   .     S
H27    C106    1.083   .     S
H28    C72     1.081   .     S
C33    C34     1.446   .     S
C33    C111    1.386   .     S
C33    C269    1.442   .     S
C34    C35     1.600   .     S
C34    C270    1.408   .     S
C35    C48     1.442   .     S
C36    H61     1.084   .     S
C36    C37     1.387   .     S
C37    C38     1.488   .     S
C38    H64     1.082   .     S
C38    N3      1.299   .     S
N3     C39     1.429   .     S
C39    C40     1.397   .     S
C39    C41     1.383   .     S
C40    H48     1.081   .     S
C40    C42     1.410   .     S
C41    H65     1.084   .     S
C41    C43     1.388   .     S
C42    H67     1.083   .     S
C42    C44     1.428   .     S
C43    H66     1.044   .     S
C43    C44     1.412   .     S
C44    C259    1.575   .     S
C45    H49     1.068   .     S
C46    H43     1.083   .     S
C47    C97     1.386   .     S
H29    C77     1.068   .     S
C48    H62     1.050   .     S
H31    C116    1.084   .     S
H32    C128    1.050   .     S
H33    C94     1.083   .     S
H34    C118    1.082   .     S
H35    C121    1.084   .     S
H36    C123    1.044   .     S
H37    C122    1.083   .     S
H38    C88     1.081   .     S
C49    C50     1.446   .     S
C49    C127    1.386   .     S
C49    C271    1.442   .     S
C50    C51     1.600   .     S
C50    C272    1.408   .     S
C51    C64     1.442   .     S
C52    H71     1.084   .     S
C52    C53     1.387   .     S
C53    C54     1.488   .     S
C54    H74     1.082   .     S
C54    N4      1.299   .     S
N4     C55     1.429   .     S
C55    C56     1.397   .     S
C55    C57     1.383   .     S
C56    H58     1.081   .     S
C56    C58     1.410   .     S
C57    H75     1.084   .     S
C57    C59     1.388   .     S
C58    H77     1.083   .     S
C58    C60     1.428   .     S
C59    H76     1.044   .     S
C59    C60     1.412   .     S
C60    C260    1.575   .     S
C61    H59     1.068   .     S
C62    H53     1.083   .     S
C63    C113    1.386   .     S
H39    C93     1.068   .     S
C64    H72     1.050   .     S
C65    C273    1.442   .     S
C65    C66     1.446   .     S
C66    C274    1.408   .     S
C66    C67     1.600   .     S
C67    C109    1.441   .     S
C67    C80     1.442   .     S
C68    C69     1.387   .     S
C68    C109    1.386   .     S
C69    C110    1.391   .     S
C69    C70     1.488   .     S
C70    N5      1.299   .     S
N5     C71     1.429   .     S
C71    C73     1.383   .     S
C71    C72     1.397   .     S
C72    C74     1.410   .     S
C73    C75     1.388   .     S
C74    C76     1.428   .     S
C75    C76     1.412   .     S
C77    C99     1.441   .     S
C77    C100    1.386   .     S
C78    C112    1.414   .     S
C78    C101    1.391   .     S
C79    H70     1.035   .     S
C79    C111    1.372   .     S
C80    C110    1.414   .     S
H50    C111    1.035   .     S
C81    C275    1.442   .     S
C81    C82     1.446   .     S
C82    C276    1.408   .     S
C82    C83     1.600   .     S
C83    C125    1.441   .     S
C83    C96     1.442   .     S
C84    C85     1.387   .     S
C84    C125    1.386   .     S
C85    C126    1.391   .     S
C85    C86     1.488   .     S
C86    N6      1.299   .     S
N6     C87     1.429   .     S
C87    C89     1.383   .     S
C87    C88     1.397   .     S
C88    C90     1.410   .     S
C89    C91     1.388   .     S
C90    C92     1.428   .     S
C91    C92     1.412   .     S
C92    C258    1.575   .     S
C93    C115    1.441   .     S
C93    C116    1.386   .     S
C94    C128    1.414   .     S
C94    C117    1.391   .     S
C95    H80     1.035   .     S
C96    C126    1.414   .     S
H60    C127    1.035   .     S
C97    C98     1.446   .     S
C97    C269    1.442   .     S
C98    C270    1.408   .     S
C98    C99     1.600   .     S
C99    C112    1.442   .     S
C100   C101    1.387   .     S
C101   C102    1.488   .     S
C102   N7      1.299   .     S
N7     C103    1.429   .     S
C103   C105    1.383   .     S
C103   C104    1.397   .     S
C104   C106    1.410   .     S
C105   C107    1.388   .     S
C106   C108    1.428   .     S
C107   C108    1.412   .     S
C108   C257    1.575   .     S
C113   C271    1.442   .     S
C113   C114    1.446   .     S
C114   C272    1.408   .     S
C114   C115    1.600   .     S
C115   C128    1.442   .     S
C116   C117    1.387   .     S
C117   C118    1.488   .     S
C118   N8      1.299   .     S
N8     C119    1.429   .     S
C119   C121    1.383   .     S
C119   C120    1.397   .     S
C120   C122    1.410   .     S
C121   C123    1.388   .     S
C122   C124    1.428   .     S
C123   C124    1.412   .     S
C124   C258    1.575   .     S
H81    C228    1.085   .     S
H82    C208    1.070   .     S
H83    C206    1.084   .     S
H84    C230    1.082   .     S
H85    C233    1.083   .     S
H86    C235    1.047   .     S
H87    C234    1.083   .     S
H88    C200    1.080   .     S
C129   C265    1.435   .     S
C129   C130    1.383   .     S
C129   C239    1.456   .     S
C130   H89     1.024   .     S
C131   C239    1.597   .     S
C131   C173    1.432   .     S
C131   C176    1.449   .     S
C132   C133    1.387   .     S
C132   C173    1.392   .     S
C132   H141    1.085   .     S
C133   C174    1.388   .     S
C133   C134    1.484   .     S
C134   N9      1.299   .     S
C134   H144    1.082   .     S
N9     C135    1.431   .     S
C135   C137    1.386   .     S
C135   C136    1.398   .     S
C136   H128    1.080   .     S
C136   C138    1.406   .     S
C137   C139    1.392   .     S
C137   H145    1.083   .     S
C138   C140    1.426   .     S
C138   H147    1.083   .     S
C139   C140    1.413   .     S
C139   H146    1.047   .     S
C140   C257    1.571   .     S
C141   H130    1.042   .     S
C141   C163    1.432   .     S
C141   C164    1.392   .     S
C142   H123    1.084   .     S
C142   C144    1.408   .     S
C142   C165    1.388   .     S
C143   C266    1.412   .     S
C143   C225    1.456   .     S
C143   C227    1.597   .     S
H90    C205    1.042   .     S
C144   H122    1.070   .     S
C144   C163    1.449   .     S
H91    C244    1.085   .     S
H92    C224    1.070   .     S
H93    C222    1.084   .     S
H94    C246    1.082   .     S
H95    C249    1.083   .     S
H96    C251    1.047   .     S
H97    C250    1.083   .     S
H98    C216    1.080   .     S
C145   C267    1.435   .     S
C145   C146    1.383   .     S
C145   C255    1.456   .     S
C146   H99     1.024   .     S
C147   C255    1.597   .     S
C147   C189    1.432   .     S
C147   C192    1.449   .     S
C148   C149    1.387   .     S
C148   C189    1.392   .     S
C148   H151    1.085   .     S
C149   C190    1.388   .     S
C149   C150    1.484   .     S
C150   N10     1.299   .     S
C150   H154    1.082   .     S
N10    C151    1.431   .     S
C151   C153    1.386   .     S
C151   C152    1.398   .     S
C152   H138    1.080   .     S
C152   C154    1.406   .     S
C153   C155    1.392   .     S
C153   H155    1.083   .     S
C154   C156    1.426   .     S
C154   H157    1.083   .     S
C155   C156    1.413   .     S
C155   H156    1.047   .     S
C157   H140    1.042   .     S
C157   C179    1.432   .     S
C157   C180    1.392   .     S
C158   H133    1.084   .     S
C158   C160    1.408   .     S
C158   C181    1.388   .     S
C159   C268    1.412   .     S
C159   C241    1.456   .     S
C159   C243    1.597   .     S
H100   C221    1.042   .     S
C160   H132    1.070   .     S
C160   C179    1.449   .     S
H101   C196    1.085   .     S
H102   C240    1.070   .     S
H103   C238    1.084   .     S
H104   C198    1.082   .     S
H105   C201    1.083   .     S
H106   C203    1.047   .     S
H107   C202    1.083   .     S
H108   C232    1.080   .     S
C161   C162    1.383   .     S
C161   C207    1.456   .     S
C162   H109    1.024   .     S
C163   C207    1.597   .     S
C164   C165    1.387   .     S
C164   H121    1.085   .     S
C165   C166    1.484   .     S
C166   N11     1.299   .     S
C166   H124    1.082   .     S
N11    C167    1.431   .     S
C167   C169    1.386   .     S
C167   C168    1.398   .     S
C168   H148    1.080   .     S
C168   C170    1.406   .     S
C169   C171    1.392   .     S
C169   H125    1.083   .     S
C170   C172    1.426   .     S
C170   H127    1.083   .     S
C171   C172    1.413   .     S
C171   H126    1.047   .     S
C172   C257    1.571   .     S
C173   H150    1.042   .     S
C174   H143    1.084   .     S
C174   C176    1.408   .     S
C175   C193    1.456   .     S
C175   C195    1.597   .     S
H110   C237    1.042   .     S
C176   H142    1.070   .     S
H111   C212    1.085   .     S
H112   C256    1.070   .     S
H113   C254    1.084   .     S
H114   C214    1.082   .     S
H115   C217    1.083   .     S
H116   C219    1.047   .     S
H117   C218    1.083   .     S
H118   C248    1.080   .     S
C177   C178    1.383   .     S
C177   C267    1.435   .     S
C177   C223    1.456   .     S
C178   H119    1.024   .     S
C179   C223    1.597   .     S
C180   C181    1.387   .     S
C180   H131    1.085   .     S
C181   C182    1.484   .     S
C182   N12     1.299   .     S
C182   H134    1.082   .     S
N12    C183    1.431   .     S
C183   C185    1.386   .     S
C183   C184    1.398   .     S
C184   H158    1.080   .     S
C184   C186    1.406   .     S
C185   C187    1.392   .     S
C185   H135    1.083   .     S
C186   C188    1.426   .     S
C186   H137    1.083   .     S
C187   C188    1.413   .     S
C187   H136    1.047   .     S
C188   C258    1.571   .     S
C189   H160    1.042   .     S
C190   H153    1.084   .     S
C190   C192    1.408   .     S
C191   C268    1.412   .     S
C191   C209    1.456   .     S
C191   C211    1.597   .     S
H120   C253    1.042   .     S
C192   H152    1.070   .     S
C193   C194    1.383   .     S
C194   H129    1.024   .     S
C195   C237    1.432   .     S
C195   C240    1.449   .     S
C196   C237    1.392   .     S
C196   C197    1.387   .     S
C197   C198    1.484   .     S
C197   C238    1.388   .     S
C198   N13     1.299   .     S
N13    C199    1.431   .     S
C199   C201    1.386   .     S
C199   C200    1.398   .     S
C200   C202    1.406   .     S
C201   C203    1.392   .     S
C202   C204    1.426   .     S
C203   C204    1.413   .     S
C204   C259    1.571   .     S
C205   C228    1.392   .     S
C205   C227    1.432   .     S
C206   C208    1.408   .     S
C206   C229    1.388   .     S
C208   C227    1.449   .     S
C209   C210    1.383   .     S
C209   C263    1.435   .     S
C210   H139    1.024   .     S
C211   C253    1.432   .     S
C211   C256    1.449   .     S
C212   C253    1.392   .     S
C212   C213    1.387   .     S
C213   C214    1.484   .     S
C213   C254    1.388   .     S
C214   N14     1.299   .     S
N14    C215    1.431   .     S
C215   C217    1.386   .     S
C215   C216    1.398   .     S
C216   C218    1.406   .     S
C217   C219    1.392   .     S
C218   C220    1.426   .     S
C219   C220    1.413   .     S
C220   C260    1.571   .     S
C221   C244    1.392   .     S
C221   C243    1.432   .     S
C222   C224    1.408   .     S
C222   C245    1.388   .     S
C223   C264    1.412   .     S
C224   C243    1.449   .     S
C225   C261    1.435   .     S
C225   C226    1.383   .     S
C226   H149    1.024   .     S
C228   C229    1.387   .     S
C229   C230    1.484   .     S
C230   N15     1.299   .     S
N15    C231    1.431   .     S
C231   C233    1.386   .     S
C231   C232    1.398   .     S
C232   C234    1.406   .     S
C233   C235    1.392   .     S
C234   C236    1.426   .     S
C235   C236    1.413   .     S
C236   C259    1.571   .     S
C238   C240    1.408   .     S
C239   C262    1.412   .     S
C241   C263    1.435   .     S
C241   C242    1.383   .     S
C242   H159    1.024   .     S
C244   C245    1.387   .     S
C245   C246    1.484   .     S
C246   N16     1.299   .     S
N16    C247    1.431   .     S
C247   C249    1.386   .     S
C247   C248    1.398   .     S
C248   C250    1.406   .     S
C249   C251    1.392   .     S
C250   C252    1.426   .     S
C251   C252    1.413   .     S
C254   C256    1.408   .     S
C255   C264    1.412   .     S
C262   H161    1.020   .     S
C264   H162    1.020   .     S
C266   H163    1.020   .     S
C268   H164    1.020   .     S
C269   C273    1.468   .     S
C270   H165    0.996   .     S
C272   H166    0.996   .     S
C274   H167    0.996   .     S
C276   H168    0.996   .     S
