data_COF-105
_audit_creation_date              2016-12-13
_audit_creation_method            'Materials Studio'
_symmetry_space_group_name_H-M    'P1'
_symmetry_Int_Tables_number       1
_symmetry_cell_setting            triclinic
loop_
_symmetry_equiv_pos_as_xyz
  x,y,z
_cell_length_a                    44.8860
_cell_length_b                    44.8860
_cell_length_c                    44.8860
_cell_angle_alpha                 90.0000
_cell_angle_beta                  90.0000
_cell_angle_gamma                 90.0000
loop_
_atom_site_label
_atom_site_type_symbol
_atom_site_fract_x
_atom_site_fract_y
_atom_site_fract_z
_atom_site_U_iso_or_equiv
_atom_site_adp_type
_atom_site_occupancy
C1     C     0.22645   0.21781   0.18335   0.00000  Uiso   1.00
C2     C     0.20018   0.23477   0.19174   0.00000  Uiso   1.00
C3     C     0.23455   0.25261   0.14166   0.00000  Uiso   1.00
C4     C     0.20882   0.26778   0.14873   0.00000  Uiso   1.00
C5     C     0.19137   0.25958   0.17328   0.00000  Uiso   1.00
C6     C     0.24387   0.22787   0.15826   0.00000  Uiso   1.00
C7     C     0.35228   0.05035   0.21728   0.00000  Uiso   1.00
C8     C     0.34987   0.03288   0.24348   0.00000  Uiso   1.00
C9     C     0.32755   0.03978   0.26475   0.00000  Uiso   1.00
C10    C     0.30811   0.06410   0.26008   0.00000  Uiso   1.00
C11    C     0.31075   0.08180   0.23403   0.00000  Uiso   1.00
C12    C     0.33294   0.07478   0.21265   0.00000  Uiso   1.00
H1     H     0.17131   0.27270   0.17680   0.00000  Uiso   1.00
H2     H     0.26464   0.21763   0.15114   0.00000  Uiso   1.00
H3     H     0.36894   0.04522   0.20028   0.00000  Uiso   1.00
H4     H     0.33529   0.08803   0.19228   0.00000  Uiso   1.00
H5     H     0.32518   0.02632   0.28497   0.00000  Uiso   1.00
H6     H     0.29108   0.06904   0.27686   0.00000  Uiso   1.00
B1     B     0.28905   0.10906   0.22877   0.00000  Uiso   1.00
O1     O     0.24923   0.26434   0.11672   0.00000  Uiso   1.00
O2     O     0.12931   0.20284   0.29149   0.00000  Uiso   1.00
C13    C     0.72645   0.71781   0.68335   0.00000  Uiso   1.00
C14    C     0.70018   0.73477   0.69174   0.00000  Uiso   1.00
C15    C     0.73455   0.75261   0.64166   0.00000  Uiso   1.00
C16    C     0.70882   0.76778   0.64873   0.00000  Uiso   1.00
C17    C     0.69137   0.75958   0.67328   0.00000  Uiso   1.00
C18    C     0.74387   0.72787   0.65826   0.00000  Uiso   1.00
C19    C     0.85228   0.55035   0.71728   0.00000  Uiso   1.00
C20    C     0.84987   0.53288   0.74348   0.00000  Uiso   1.00
C21    C     0.82755   0.53978   0.76475   0.00000  Uiso   1.00
C22    C     0.80811   0.56410   0.76008   0.00000  Uiso   1.00
C23    C     0.81075   0.58180   0.73403   0.00000  Uiso   1.00
C24    C     0.83294   0.57478   0.71265   0.00000  Uiso   1.00
H7     H     0.67131   0.77270   0.67680   0.00000  Uiso   1.00
H8     H     0.76464   0.71763   0.65114   0.00000  Uiso   1.00
H9     H     0.86894   0.54522   0.70028   0.00000  Uiso   1.00
H10    H     0.83529   0.58803   0.69228   0.00000  Uiso   1.00
H11    H     0.82518   0.52632   0.78497   0.00000  Uiso   1.00
H12    H     0.79108   0.56904   0.77686   0.00000  Uiso   1.00
B2     B     0.78905   0.60906   0.72877   0.00000  Uiso   1.00
O3     O     0.74923   0.76434   0.61672   0.00000  Uiso   1.00
O4     O     0.62931   0.70284   0.79149   0.00000  Uiso   1.00
C25    C     0.27355   0.78219   0.68335   0.00000  Uiso   1.00
C26    C     0.29982   0.76523   0.69174   0.00000  Uiso   1.00
C27    C     0.26545   0.74739   0.64166   0.00000  Uiso   1.00
C28    C     0.29118   0.73222   0.64873   0.00000  Uiso   1.00
C29    C     0.30863   0.74042   0.67328   0.00000  Uiso   1.00
C30    C     0.25613   0.77213   0.65826   0.00000  Uiso   1.00
C31    C     0.14772   0.94965   0.71728   0.00000  Uiso   1.00
C32    C     0.15013   0.96712   0.74348   0.00000  Uiso   1.00
C33    C     0.17245   0.96022   0.76475   0.00000  Uiso   1.00
C34    C     0.19189   0.93590   0.76008   0.00000  Uiso   1.00
C35    C     0.18925   0.91820   0.73403   0.00000  Uiso   1.00
C36    C     0.16706   0.92522   0.71265   0.00000  Uiso   1.00
H13    H     0.32869   0.72730   0.67680   0.00000  Uiso   1.00
H14    H     0.23536   0.78237   0.65114   0.00000  Uiso   1.00
H15    H     0.13106   0.95478   0.70028   0.00000  Uiso   1.00
H16    H     0.16471   0.91197   0.69228   0.00000  Uiso   1.00
H17    H     0.17482   0.97368   0.78497   0.00000  Uiso   1.00
H18    H     0.20892   0.93096   0.77686   0.00000  Uiso   1.00
B3     B     0.21095   0.89094   0.72877   0.00000  Uiso   1.00
O5     O     0.25077   0.73566   0.61672   0.00000  Uiso   1.00
O6     O     0.37069   0.79716   0.79149   0.00000  Uiso   1.00
C37    C     0.77355   0.28219   0.18335   0.00000  Uiso   1.00
C38    C     0.79982   0.26523   0.19174   0.00000  Uiso   1.00
C39    C     0.76545   0.24739   0.14166   0.00000  Uiso   1.00
C40    C     0.79118   0.23222   0.14873   0.00000  Uiso   1.00
C41    C     0.80863   0.24042   0.17328   0.00000  Uiso   1.00
C42    C     0.75613   0.27213   0.15826   0.00000  Uiso   1.00
C43    C     0.64772   0.44965   0.21728   0.00000  Uiso   1.00
C44    C     0.65013   0.46712   0.24348   0.00000  Uiso   1.00
C45    C     0.67245   0.46022   0.26475   0.00000  Uiso   1.00
C46    C     0.69189   0.43590   0.26008   0.00000  Uiso   1.00
C47    C     0.68925   0.41820   0.23403   0.00000  Uiso   1.00
C48    C     0.66706   0.42522   0.21265   0.00000  Uiso   1.00
H19    H     0.82869   0.22730   0.17680   0.00000  Uiso   1.00
H20    H     0.73536   0.28237   0.15114   0.00000  Uiso   1.00
H21    H     0.63106   0.45478   0.20028   0.00000  Uiso   1.00
H22    H     0.66471   0.41197   0.19228   0.00000  Uiso   1.00
H23    H     0.67482   0.47368   0.28497   0.00000  Uiso   1.00
H24    H     0.70892   0.43096   0.27686   0.00000  Uiso   1.00
B4     B     0.71095   0.39094   0.22877   0.00000  Uiso   1.00
O7     O     0.75077   0.23566   0.11672   0.00000  Uiso   1.00
O8     O     0.87069   0.29716   0.29149   0.00000  Uiso   1.00
C49    C     0.77355   0.71781   0.31665   0.00000  Uiso   1.00
C50    C     0.79982   0.73477   0.30826   0.00000  Uiso   1.00
C51    C     0.76545   0.75261   0.35834   0.00000  Uiso   1.00
C52    C     0.79118   0.76778   0.35127   0.00000  Uiso   1.00
C53    C     0.80863   0.75958   0.32672   0.00000  Uiso   1.00
C54    C     0.75613   0.72787   0.34174   0.00000  Uiso   1.00
C55    C     0.64772   0.55035   0.28272   0.00000  Uiso   1.00
C56    C     0.65013   0.53288   0.25652   0.00000  Uiso   1.00
C57    C     0.67245   0.53978   0.23525   0.00000  Uiso   1.00
C58    C     0.69189   0.56410   0.23992   0.00000  Uiso   1.00
C59    C     0.68925   0.58180   0.26597   0.00000  Uiso   1.00
C60    C     0.66706   0.57478   0.28735   0.00000  Uiso   1.00
H25    H     0.82869   0.77270   0.32320   0.00000  Uiso   1.00
H26    H     0.73536   0.71763   0.34886   0.00000  Uiso   1.00
H27    H     0.63106   0.54522   0.29972   0.00000  Uiso   1.00
H28    H     0.66471   0.58803   0.30772   0.00000  Uiso   1.00
H29    H     0.67482   0.52632   0.21503   0.00000  Uiso   1.00
H30    H     0.70892   0.56904   0.22314   0.00000  Uiso   1.00
B5     B     0.71095   0.60906   0.27123   0.00000  Uiso   1.00
O9     O     0.75077   0.76434   0.38328   0.00000  Uiso   1.00
O10    O     0.87069   0.70284   0.20851   0.00000  Uiso   1.00
C61    C     0.27355   0.21781   0.81665   0.00000  Uiso   1.00
C62    C     0.29982   0.23477   0.80826   0.00000  Uiso   1.00
C63    C     0.26545   0.25261   0.85834   0.00000  Uiso   1.00
C64    C     0.29118   0.26778   0.85127   0.00000  Uiso   1.00
C65    C     0.30863   0.25958   0.82672   0.00000  Uiso   1.00
C66    C     0.25613   0.22787   0.84174   0.00000  Uiso   1.00
C67    C     0.14772   0.05035   0.78272   0.00000  Uiso   1.00
C68    C     0.15013   0.03288   0.75652   0.00000  Uiso   1.00
C69    C     0.17245   0.03978   0.73525   0.00000  Uiso   1.00
C70    C     0.19189   0.06410   0.73992   0.00000  Uiso   1.00
C71    C     0.18925   0.08180   0.76597   0.00000  Uiso   1.00
C72    C     0.16706   0.07478   0.78735   0.00000  Uiso   1.00
H31    H     0.32869   0.27270   0.82320   0.00000  Uiso   1.00
H32    H     0.23536   0.21763   0.84886   0.00000  Uiso   1.00
H33    H     0.13106   0.04522   0.79972   0.00000  Uiso   1.00
H34    H     0.16471   0.08803   0.80772   0.00000  Uiso   1.00
H35    H     0.17482   0.02632   0.71503   0.00000  Uiso   1.00
H36    H     0.20892   0.06904   0.72314   0.00000  Uiso   1.00
B6     B     0.21095   0.10906   0.77123   0.00000  Uiso   1.00
O11    O     0.25077   0.26434   0.88328   0.00000  Uiso   1.00
O12    O     0.37069   0.20284   0.70851   0.00000  Uiso   1.00
C73    C     0.72645   0.28219   0.81665   0.00000  Uiso   1.00
C74    C     0.70018   0.26523   0.80826   0.00000  Uiso   1.00
C75    C     0.73455   0.24739   0.85834   0.00000  Uiso   1.00
C76    C     0.70882   0.23222   0.85127   0.00000  Uiso   1.00
C77    C     0.69137   0.24042   0.82672   0.00000  Uiso   1.00
C78    C     0.74387   0.27213   0.84174   0.00000  Uiso   1.00
C79    C     0.85228   0.44965   0.78272   0.00000  Uiso   1.00
C80    C     0.84987   0.46712   0.75652   0.00000  Uiso   1.00
C81    C     0.82755   0.46022   0.73525   0.00000  Uiso   1.00
C82    C     0.80811   0.43590   0.73992   0.00000  Uiso   1.00
C83    C     0.81075   0.41820   0.76597   0.00000  Uiso   1.00
C84    C     0.83294   0.42522   0.78735   0.00000  Uiso   1.00
H37    H     0.67131   0.22730   0.82320   0.00000  Uiso   1.00
H38    H     0.76464   0.28237   0.84886   0.00000  Uiso   1.00
H39    H     0.86894   0.45478   0.79972   0.00000  Uiso   1.00
H40    H     0.83529   0.41197   0.80772   0.00000  Uiso   1.00
H41    H     0.82518   0.47368   0.71503   0.00000  Uiso   1.00
H42    H     0.79108   0.43096   0.72314   0.00000  Uiso   1.00
B7     B     0.78905   0.39094   0.77123   0.00000  Uiso   1.00
O13    O     0.74923   0.23566   0.88328   0.00000  Uiso   1.00
O14    O     0.62931   0.29716   0.70851   0.00000  Uiso   1.00
C85    C     0.22645   0.78219   0.31665   0.00000  Uiso   1.00
C86    C     0.20018   0.76523   0.30826   0.00000  Uiso   1.00
C87    C     0.23455   0.74739   0.35834   0.00000  Uiso   1.00
C88    C     0.20882   0.73222   0.35127   0.00000  Uiso   1.00
C89    C     0.19137   0.74042   0.32672   0.00000  Uiso   1.00
C90    C     0.24387   0.77213   0.34174   0.00000  Uiso   1.00
C91    C     0.35228   0.94965   0.28272   0.00000  Uiso   1.00
C92    C     0.34987   0.96712   0.25652   0.00000  Uiso   1.00
C93    C     0.32755   0.96022   0.23525   0.00000  Uiso   1.00
C94    C     0.30811   0.93590   0.23992   0.00000  Uiso   1.00
C95    C     0.31075   0.91820   0.26597   0.00000  Uiso   1.00
C96    C     0.33294   0.92522   0.28735   0.00000  Uiso   1.00
H43    H     0.17131   0.72730   0.32320   0.00000  Uiso   1.00
H44    H     0.26464   0.78237   0.34886   0.00000  Uiso   1.00
H45    H     0.36894   0.95478   0.29972   0.00000  Uiso   1.00
H46    H     0.33529   0.91197   0.30772   0.00000  Uiso   1.00
H47    H     0.32518   0.97368   0.21503   0.00000  Uiso   1.00
H48    H     0.29108   0.93096   0.22314   0.00000  Uiso   1.00
B8     B     0.28905   0.89094   0.27123   0.00000  Uiso   1.00
O15    O     0.24923   0.73566   0.38328   0.00000  Uiso   1.00
O16    O     0.12931   0.79716   0.20851   0.00000  Uiso   1.00
C97    C     0.18335   0.22645   0.21781   0.00000  Uiso   1.00
C98    C     0.19174   0.20018   0.23477   0.00000  Uiso   1.00
C99    C     0.14166   0.23455   0.25261   0.00000  Uiso   1.00
C100   C     0.14873   0.20882   0.26778   0.00000  Uiso   1.00
C101   C     0.17328   0.19137   0.25958   0.00000  Uiso   1.00
C102   C     0.15826   0.24387   0.22787   0.00000  Uiso   1.00
C103   C     0.21728   0.35228   0.05035   0.00000  Uiso   1.00
C104   C     0.24348   0.34987   0.03288   0.00000  Uiso   1.00
C105   C     0.26475   0.32755   0.03978   0.00000  Uiso   1.00
C106   C     0.26008   0.30811   0.06410   0.00000  Uiso   1.00
C107   C     0.23403   0.31075   0.08180   0.00000  Uiso   1.00
C108   C     0.21265   0.33294   0.07478   0.00000  Uiso   1.00
H49    H     0.17680   0.17131   0.27270   0.00000  Uiso   1.00
H50    H     0.15114   0.26464   0.21763   0.00000  Uiso   1.00
H51    H     0.20028   0.36894   0.04522   0.00000  Uiso   1.00
H52    H     0.19228   0.33529   0.08803   0.00000  Uiso   1.00
H53    H     0.28497   0.32518   0.02632   0.00000  Uiso   1.00
H54    H     0.27686   0.29108   0.06904   0.00000  Uiso   1.00
B9     B     0.22877   0.28905   0.10906   0.00000  Uiso   1.00
O17    O     0.11672   0.24923   0.26434   0.00000  Uiso   1.00
O18    O     0.29149   0.12931   0.20284   0.00000  Uiso   1.00
C109   C     0.68335   0.72645   0.71781   0.00000  Uiso   1.00
C110   C     0.69174   0.70018   0.73477   0.00000  Uiso   1.00
C111   C     0.64166   0.73455   0.75261   0.00000  Uiso   1.00
C112   C     0.64873   0.70882   0.76778   0.00000  Uiso   1.00
C113   C     0.67328   0.69137   0.75958   0.00000  Uiso   1.00
C114   C     0.65826   0.74387   0.72787   0.00000  Uiso   1.00
C115   C     0.71728   0.85228   0.55035   0.00000  Uiso   1.00
C116   C     0.74348   0.84987   0.53288   0.00000  Uiso   1.00
C117   C     0.76475   0.82755   0.53978   0.00000  Uiso   1.00
C118   C     0.76008   0.80811   0.56410   0.00000  Uiso   1.00
C119   C     0.73403   0.81075   0.58180   0.00000  Uiso   1.00
C120   C     0.71265   0.83294   0.57478   0.00000  Uiso   1.00
H55    H     0.67680   0.67131   0.77270   0.00000  Uiso   1.00
H56    H     0.65114   0.76464   0.71763   0.00000  Uiso   1.00
H57    H     0.70028   0.86894   0.54522   0.00000  Uiso   1.00
H58    H     0.69228   0.83529   0.58803   0.00000  Uiso   1.00
H59    H     0.78497   0.82518   0.52632   0.00000  Uiso   1.00
H60    H     0.77686   0.79108   0.56904   0.00000  Uiso   1.00
B10    B     0.72877   0.78905   0.60906   0.00000  Uiso   1.00
O19    O     0.61672   0.74923   0.76434   0.00000  Uiso   1.00
O20    O     0.79149   0.62931   0.70284   0.00000  Uiso   1.00
C121   C     0.68335   0.27355   0.78219   0.00000  Uiso   1.00
C122   C     0.69174   0.29982   0.76523   0.00000  Uiso   1.00
C123   C     0.64166   0.26545   0.74739   0.00000  Uiso   1.00
C124   C     0.64873   0.29118   0.73222   0.00000  Uiso   1.00
C125   C     0.67328   0.30863   0.74042   0.00000  Uiso   1.00
C126   C     0.65826   0.25613   0.77213   0.00000  Uiso   1.00
C127   C     0.71728   0.14772   0.94965   0.00000  Uiso   1.00
C128   C     0.74348   0.15013   0.96712   0.00000  Uiso   1.00
C129   C     0.76475   0.17245   0.96022   0.00000  Uiso   1.00
C130   C     0.76008   0.19189   0.93590   0.00000  Uiso   1.00
C131   C     0.73403   0.18925   0.91820   0.00000  Uiso   1.00
C132   C     0.71265   0.16706   0.92522   0.00000  Uiso   1.00
H61    H     0.67680   0.32869   0.72730   0.00000  Uiso   1.00
H62    H     0.65114   0.23536   0.78237   0.00000  Uiso   1.00
H63    H     0.70028   0.13106   0.95478   0.00000  Uiso   1.00
H64    H     0.69228   0.16471   0.91197   0.00000  Uiso   1.00
H65    H     0.78497   0.17482   0.97368   0.00000  Uiso   1.00
H66    H     0.77686   0.20892   0.93096   0.00000  Uiso   1.00
B11    B     0.72877   0.21095   0.89094   0.00000  Uiso   1.00
O21    O     0.61672   0.25077   0.73566   0.00000  Uiso   1.00
O22    O     0.79149   0.37069   0.79716   0.00000  Uiso   1.00
C133   C     0.18335   0.77355   0.28219   0.00000  Uiso   1.00
C134   C     0.19174   0.79982   0.26523   0.00000  Uiso   1.00
C135   C     0.14166   0.76545   0.24739   0.00000  Uiso   1.00
C136   C     0.14873   0.79118   0.23222   0.00000  Uiso   1.00
C137   C     0.17328   0.80863   0.24042   0.00000  Uiso   1.00
C138   C     0.15826   0.75613   0.27213   0.00000  Uiso   1.00
C139   C     0.21728   0.64772   0.44965   0.00000  Uiso   1.00
C140   C     0.24348   0.65013   0.46712   0.00000  Uiso   1.00
C141   C     0.26475   0.67245   0.46022   0.00000  Uiso   1.00
C142   C     0.26008   0.69189   0.43590   0.00000  Uiso   1.00
C143   C     0.23403   0.68925   0.41820   0.00000  Uiso   1.00
C144   C     0.21265   0.66706   0.42522   0.00000  Uiso   1.00
H67    H     0.17680   0.82869   0.22730   0.00000  Uiso   1.00
H68    H     0.15114   0.73536   0.28237   0.00000  Uiso   1.00
H69    H     0.20028   0.63106   0.45478   0.00000  Uiso   1.00
H70    H     0.19228   0.66471   0.41197   0.00000  Uiso   1.00
H71    H     0.28497   0.67482   0.47368   0.00000  Uiso   1.00
H72    H     0.27686   0.70892   0.43096   0.00000  Uiso   1.00
B12    B     0.22877   0.71095   0.39094   0.00000  Uiso   1.00
O23    O     0.11672   0.75077   0.23566   0.00000  Uiso   1.00
O24    O     0.29149   0.87069   0.29716   0.00000  Uiso   1.00
C145   C     0.31665   0.77355   0.71781   0.00000  Uiso   1.00
C146   C     0.30826   0.79982   0.73477   0.00000  Uiso   1.00
C147   C     0.35834   0.76545   0.75261   0.00000  Uiso   1.00
C148   C     0.35127   0.79118   0.76778   0.00000  Uiso   1.00
C149   C     0.32672   0.80863   0.75958   0.00000  Uiso   1.00
C150   C     0.34174   0.75613   0.72787   0.00000  Uiso   1.00
C151   C     0.28272   0.64772   0.55035   0.00000  Uiso   1.00
C152   C     0.25652   0.65013   0.53288   0.00000  Uiso   1.00
C153   C     0.23525   0.67245   0.53978   0.00000  Uiso   1.00
C154   C     0.23992   0.69189   0.56410   0.00000  Uiso   1.00
C155   C     0.26597   0.68925   0.58180   0.00000  Uiso   1.00
C156   C     0.28735   0.66706   0.57478   0.00000  Uiso   1.00
H73    H     0.32320   0.82869   0.77270   0.00000  Uiso   1.00
H74    H     0.34886   0.73536   0.71763   0.00000  Uiso   1.00
H75    H     0.29972   0.63106   0.54522   0.00000  Uiso   1.00
H76    H     0.30772   0.66471   0.58803   0.00000  Uiso   1.00
H77    H     0.21503   0.67482   0.52632   0.00000  Uiso   1.00
H78    H     0.22314   0.70892   0.56904   0.00000  Uiso   1.00
B13    B     0.27123   0.71095   0.60906   0.00000  Uiso   1.00
O25    O     0.38328   0.75077   0.76434   0.00000  Uiso   1.00
O26    O     0.20851   0.87069   0.70284   0.00000  Uiso   1.00
C157   C     0.81665   0.27355   0.21781   0.00000  Uiso   1.00
C158   C     0.80826   0.29982   0.23477   0.00000  Uiso   1.00
C159   C     0.85834   0.26545   0.25261   0.00000  Uiso   1.00
C160   C     0.85127   0.29118   0.26778   0.00000  Uiso   1.00
C161   C     0.82672   0.30863   0.25958   0.00000  Uiso   1.00
C162   C     0.84174   0.25613   0.22787   0.00000  Uiso   1.00
C163   C     0.78272   0.14772   0.05035   0.00000  Uiso   1.00
C164   C     0.75652   0.15013   0.03288   0.00000  Uiso   1.00
C165   C     0.73525   0.17245   0.03978   0.00000  Uiso   1.00
C166   C     0.73992   0.19189   0.06410   0.00000  Uiso   1.00
C167   C     0.76597   0.18925   0.08180   0.00000  Uiso   1.00
C168   C     0.78735   0.16706   0.07478   0.00000  Uiso   1.00
H79    H     0.82320   0.32869   0.27270   0.00000  Uiso   1.00
H80    H     0.84886   0.23536   0.21763   0.00000  Uiso   1.00
H81    H     0.79972   0.13106   0.04522   0.00000  Uiso   1.00
H82    H     0.80772   0.16471   0.08803   0.00000  Uiso   1.00
H83    H     0.71503   0.17482   0.02632   0.00000  Uiso   1.00
H84    H     0.72314   0.20892   0.06904   0.00000  Uiso   1.00
B14    B     0.77123   0.21095   0.10906   0.00000  Uiso   1.00
O27    O     0.88328   0.25077   0.26434   0.00000  Uiso   1.00
O28    O     0.70851   0.37069   0.20284   0.00000  Uiso   1.00
C169   C     0.81665   0.72645   0.28219   0.00000  Uiso   1.00
C170   C     0.80826   0.70018   0.26523   0.00000  Uiso   1.00
C171   C     0.85834   0.73455   0.24739   0.00000  Uiso   1.00
C172   C     0.85127   0.70882   0.23222   0.00000  Uiso   1.00
C173   C     0.82672   0.69137   0.24042   0.00000  Uiso   1.00
C174   C     0.84174   0.74387   0.27213   0.00000  Uiso   1.00
C175   C     0.78272   0.85228   0.44965   0.00000  Uiso   1.00
C176   C     0.75652   0.84987   0.46712   0.00000  Uiso   1.00
C177   C     0.73525   0.82755   0.46022   0.00000  Uiso   1.00
C178   C     0.73992   0.80811   0.43590   0.00000  Uiso   1.00
C179   C     0.76597   0.81075   0.41820   0.00000  Uiso   1.00
C180   C     0.78735   0.83294   0.42522   0.00000  Uiso   1.00
H85    H     0.82320   0.67131   0.22730   0.00000  Uiso   1.00
H86    H     0.84886   0.76464   0.28237   0.00000  Uiso   1.00
H87    H     0.79972   0.86894   0.45478   0.00000  Uiso   1.00
H88    H     0.80772   0.83529   0.41197   0.00000  Uiso   1.00
H89    H     0.71503   0.82518   0.47368   0.00000  Uiso   1.00
H90    H     0.72314   0.79108   0.43096   0.00000  Uiso   1.00
B15    B     0.77123   0.78905   0.39094   0.00000  Uiso   1.00
O29    O     0.88328   0.74923   0.23566   0.00000  Uiso   1.00
O30    O     0.70851   0.62931   0.29716   0.00000  Uiso   1.00
C181   C     0.31665   0.22645   0.78219   0.00000  Uiso   1.00
C182   C     0.30826   0.20018   0.76523   0.00000  Uiso   1.00
C183   C     0.35834   0.23455   0.74739   0.00000  Uiso   1.00
C184   C     0.35127   0.20882   0.73222   0.00000  Uiso   1.00
C185   C     0.32672   0.19137   0.74042   0.00000  Uiso   1.00
C186   C     0.34174   0.24387   0.77213   0.00000  Uiso   1.00
C187   C     0.28272   0.35228   0.94965   0.00000  Uiso   1.00
C188   C     0.25652   0.34987   0.96712   0.00000  Uiso   1.00
C189   C     0.23525   0.32755   0.96022   0.00000  Uiso   1.00
C190   C     0.23992   0.30811   0.93590   0.00000  Uiso   1.00
C191   C     0.26597   0.31075   0.91820   0.00000  Uiso   1.00
C192   C     0.28735   0.33294   0.92522   0.00000  Uiso   1.00
H91    H     0.32320   0.17131   0.72730   0.00000  Uiso   1.00
H92    H     0.34886   0.26464   0.78237   0.00000  Uiso   1.00
H93    H     0.29972   0.36894   0.95478   0.00000  Uiso   1.00
H94    H     0.30772   0.33529   0.91197   0.00000  Uiso   1.00
H95    H     0.21503   0.32518   0.97368   0.00000  Uiso   1.00
H96    H     0.22314   0.29108   0.93096   0.00000  Uiso   1.00
B16    B     0.27123   0.28905   0.89094   0.00000  Uiso   1.00
O31    O     0.38328   0.24923   0.73566   0.00000  Uiso   1.00
O32    O     0.20851   0.12931   0.79716   0.00000  Uiso   1.00
C193   C     0.21781   0.18335   0.22645   0.00000  Uiso   1.00
C194   C     0.23477   0.19174   0.20018   0.00000  Uiso   1.00
C195   C     0.25261   0.14166   0.23455   0.00000  Uiso   1.00
C196   C     0.26778   0.14873   0.20882   0.00000  Uiso   1.00
C197   C     0.25958   0.17328   0.19137   0.00000  Uiso   1.00
C198   C     0.22787   0.15826   0.24387   0.00000  Uiso   1.00
C199   C     0.05035   0.21728   0.35228   0.00000  Uiso   1.00
C200   C     0.03288   0.24348   0.34987   0.00000  Uiso   1.00
C201   C     0.03978   0.26475   0.32755   0.00000  Uiso   1.00
C202   C     0.06410   0.26008   0.30811   0.00000  Uiso   1.00
C203   C     0.08180   0.23403   0.31075   0.00000  Uiso   1.00
C204   C     0.07478   0.21265   0.33294   0.00000  Uiso   1.00
H97    H     0.27270   0.17680   0.17131   0.00000  Uiso   1.00
H98    H     0.21763   0.15114   0.26464   0.00000  Uiso   1.00
H99    H     0.04522   0.20028   0.36894   0.00000  Uiso   1.00
H100   H     0.08803   0.19228   0.33529   0.00000  Uiso   1.00
H101   H     0.02632   0.28497   0.32518   0.00000  Uiso   1.00
H102   H     0.06904   0.27686   0.29108   0.00000  Uiso   1.00
B17    B     0.10906   0.22877   0.28905   0.00000  Uiso   1.00
O33    O     0.26434   0.11672   0.24923   0.00000  Uiso   1.00
O34    O     0.20284   0.29149   0.12931   0.00000  Uiso   1.00
C205   C     0.71781   0.68335   0.72645   0.00000  Uiso   1.00
C206   C     0.73477   0.69174   0.70018   0.00000  Uiso   1.00
C207   C     0.75261   0.64166   0.73455   0.00000  Uiso   1.00
C208   C     0.76778   0.64873   0.70882   0.00000  Uiso   1.00
C209   C     0.75958   0.67328   0.69137   0.00000  Uiso   1.00
C210   C     0.72787   0.65826   0.74387   0.00000  Uiso   1.00
C211   C     0.55035   0.71728   0.85228   0.00000  Uiso   1.00
C212   C     0.53288   0.74348   0.84987   0.00000  Uiso   1.00
C213   C     0.53978   0.76475   0.82755   0.00000  Uiso   1.00
C214   C     0.56410   0.76008   0.80811   0.00000  Uiso   1.00
C215   C     0.58180   0.73403   0.81075   0.00000  Uiso   1.00
C216   C     0.57478   0.71265   0.83294   0.00000  Uiso   1.00
H103   H     0.77270   0.67680   0.67131   0.00000  Uiso   1.00
H104   H     0.71763   0.65114   0.76464   0.00000  Uiso   1.00
H105   H     0.54522   0.70028   0.86894   0.00000  Uiso   1.00
H106   H     0.58803   0.69228   0.83529   0.00000  Uiso   1.00
H107   H     0.52632   0.78497   0.82518   0.00000  Uiso   1.00
H108   H     0.56904   0.77686   0.79108   0.00000  Uiso   1.00
B18    B     0.60906   0.72877   0.78905   0.00000  Uiso   1.00
O35    O     0.76434   0.61672   0.74923   0.00000  Uiso   1.00
O36    O     0.70284   0.79149   0.62931   0.00000  Uiso   1.00
C217   C     0.78219   0.68335   0.27355   0.00000  Uiso   1.00
C218   C     0.76523   0.69174   0.29982   0.00000  Uiso   1.00
C219   C     0.74739   0.64166   0.26545   0.00000  Uiso   1.00
C220   C     0.73222   0.64873   0.29118   0.00000  Uiso   1.00
C221   C     0.74042   0.67328   0.30863   0.00000  Uiso   1.00
C222   C     0.77213   0.65826   0.25613   0.00000  Uiso   1.00
C223   C     0.94965   0.71728   0.14772   0.00000  Uiso   1.00
C224   C     0.96712   0.74348   0.15013   0.00000  Uiso   1.00
C225   C     0.96022   0.76475   0.17245   0.00000  Uiso   1.00
C226   C     0.93590   0.76008   0.19189   0.00000  Uiso   1.00
C227   C     0.91820   0.73403   0.18925   0.00000  Uiso   1.00
C228   C     0.92522   0.71265   0.16706   0.00000  Uiso   1.00
H109   H     0.72730   0.67680   0.32869   0.00000  Uiso   1.00
H110   H     0.78237   0.65114   0.23536   0.00000  Uiso   1.00
H111   H     0.95478   0.70028   0.13106   0.00000  Uiso   1.00
H112   H     0.91197   0.69228   0.16471   0.00000  Uiso   1.00
H113   H     0.97368   0.78497   0.17482   0.00000  Uiso   1.00
H114   H     0.93096   0.77686   0.20892   0.00000  Uiso   1.00
B19    B     0.89094   0.72877   0.21095   0.00000  Uiso   1.00
O37    O     0.73566   0.61672   0.25077   0.00000  Uiso   1.00
O38    O     0.79716   0.79149   0.37069   0.00000  Uiso   1.00
C229   C     0.28219   0.18335   0.77355   0.00000  Uiso   1.00
C230   C     0.26523   0.19174   0.79982   0.00000  Uiso   1.00
C231   C     0.24739   0.14166   0.76545   0.00000  Uiso   1.00
C232   C     0.23222   0.14873   0.79118   0.00000  Uiso   1.00
C233   C     0.24042   0.17328   0.80863   0.00000  Uiso   1.00
C234   C     0.27213   0.15826   0.75613   0.00000  Uiso   1.00
C235   C     0.44965   0.21728   0.64772   0.00000  Uiso   1.00
C236   C     0.46712   0.24348   0.65013   0.00000  Uiso   1.00
C237   C     0.46022   0.26475   0.67245   0.00000  Uiso   1.00
C238   C     0.43590   0.26008   0.69189   0.00000  Uiso   1.00
C239   C     0.41820   0.23403   0.68925   0.00000  Uiso   1.00
C240   C     0.42522   0.21265   0.66706   0.00000  Uiso   1.00
H115   H     0.22730   0.17680   0.82869   0.00000  Uiso   1.00
H116   H     0.28237   0.15114   0.73536   0.00000  Uiso   1.00
H117   H     0.45478   0.20028   0.63106   0.00000  Uiso   1.00
H118   H     0.41197   0.19228   0.66471   0.00000  Uiso   1.00
H119   H     0.47368   0.28497   0.67482   0.00000  Uiso   1.00
H120   H     0.43096   0.27686   0.70892   0.00000  Uiso   1.00
B20    B     0.39094   0.22877   0.71095   0.00000  Uiso   1.00
O39    O     0.23566   0.11672   0.75077   0.00000  Uiso   1.00
O40    O     0.29716   0.29149   0.87069   0.00000  Uiso   1.00
C241   C     0.71781   0.31665   0.77355   0.00000  Uiso   1.00
C242   C     0.73477   0.30826   0.79982   0.00000  Uiso   1.00
C243   C     0.75261   0.35834   0.76545   0.00000  Uiso   1.00
C244   C     0.76778   0.35127   0.79118   0.00000  Uiso   1.00
C245   C     0.75958   0.32672   0.80863   0.00000  Uiso   1.00
C246   C     0.72787   0.34174   0.75613   0.00000  Uiso   1.00
C247   C     0.55035   0.28272   0.64772   0.00000  Uiso   1.00
C248   C     0.53288   0.25652   0.65013   0.00000  Uiso   1.00
C249   C     0.53978   0.23525   0.67245   0.00000  Uiso   1.00
C250   C     0.56410   0.23992   0.69189   0.00000  Uiso   1.00
C251   C     0.58180   0.26597   0.68925   0.00000  Uiso   1.00
C252   C     0.57478   0.28735   0.66706   0.00000  Uiso   1.00
H121   H     0.77270   0.32320   0.82869   0.00000  Uiso   1.00
H122   H     0.71763   0.34886   0.73536   0.00000  Uiso   1.00
H123   H     0.54522   0.29972   0.63106   0.00000  Uiso   1.00
H124   H     0.58803   0.30772   0.66471   0.00000  Uiso   1.00
H125   H     0.52632   0.21503   0.67482   0.00000  Uiso   1.00
H126   H     0.56904   0.22314   0.70892   0.00000  Uiso   1.00
B21    B     0.60906   0.27123   0.71095   0.00000  Uiso   1.00
O41    O     0.76434   0.38328   0.75077   0.00000  Uiso   1.00
O42    O     0.70284   0.20851   0.87069   0.00000  Uiso   1.00
C253   C     0.21781   0.81665   0.27355   0.00000  Uiso   1.00
C254   C     0.23477   0.80826   0.29982   0.00000  Uiso   1.00
C255   C     0.25261   0.85834   0.26545   0.00000  Uiso   1.00
C256   C     0.26778   0.85127   0.29118   0.00000  Uiso   1.00
C257   C     0.25958   0.82672   0.30863   0.00000  Uiso   1.00
C258   C     0.22787   0.84174   0.25613   0.00000  Uiso   1.00
C259   C     0.05035   0.78272   0.14772   0.00000  Uiso   1.00
C260   C     0.03288   0.75652   0.15013   0.00000  Uiso   1.00
C261   C     0.03978   0.73525   0.17245   0.00000  Uiso   1.00
C262   C     0.06410   0.73992   0.19189   0.00000  Uiso   1.00
C263   C     0.08180   0.76597   0.18925   0.00000  Uiso   1.00
C264   C     0.07478   0.78735   0.16706   0.00000  Uiso   1.00
H127   H     0.27270   0.82320   0.32869   0.00000  Uiso   1.00
H128   H     0.21763   0.84886   0.23536   0.00000  Uiso   1.00
H129   H     0.04522   0.79972   0.13106   0.00000  Uiso   1.00
H130   H     0.08803   0.80772   0.16471   0.00000  Uiso   1.00
H131   H     0.02632   0.71503   0.17482   0.00000  Uiso   1.00
H132   H     0.06904   0.72314   0.20892   0.00000  Uiso   1.00
B22    B     0.10906   0.77123   0.21095   0.00000  Uiso   1.00
O43    O     0.26434   0.88328   0.25077   0.00000  Uiso   1.00
O44    O     0.20284   0.70851   0.37069   0.00000  Uiso   1.00
C265   C     0.28219   0.81665   0.72645   0.00000  Uiso   1.00
C266   C     0.26523   0.80826   0.70018   0.00000  Uiso   1.00
C267   C     0.24739   0.85834   0.73455   0.00000  Uiso   1.00
C268   C     0.23222   0.85127   0.70882   0.00000  Uiso   1.00
C269   C     0.24042   0.82672   0.69137   0.00000  Uiso   1.00
C270   C     0.27213   0.84174   0.74387   0.00000  Uiso   1.00
C271   C     0.44965   0.78272   0.85228   0.00000  Uiso   1.00
C272   C     0.46712   0.75652   0.84987   0.00000  Uiso   1.00
C273   C     0.46022   0.73525   0.82755   0.00000  Uiso   1.00
C274   C     0.43590   0.73992   0.80811   0.00000  Uiso   1.00
C275   C     0.41820   0.76597   0.81075   0.00000  Uiso   1.00
C276   C     0.42522   0.78735   0.83294   0.00000  Uiso   1.00
H133   H     0.22730   0.82320   0.67131   0.00000  Uiso   1.00
H134   H     0.28237   0.84886   0.76464   0.00000  Uiso   1.00
H135   H     0.45478   0.79972   0.86894   0.00000  Uiso   1.00
H136   H     0.41197   0.80772   0.83529   0.00000  Uiso   1.00
H137   H     0.47368   0.71503   0.82518   0.00000  Uiso   1.00
H138   H     0.43096   0.72314   0.79108   0.00000  Uiso   1.00
B23    B     0.39094   0.77123   0.78905   0.00000  Uiso   1.00
O45    O     0.23566   0.88328   0.74923   0.00000  Uiso   1.00
O46    O     0.29716   0.70851   0.62931   0.00000  Uiso   1.00
C277   C     0.78219   0.31665   0.22645   0.00000  Uiso   1.00
C278   C     0.76523   0.30826   0.20018   0.00000  Uiso   1.00
C279   C     0.74739   0.35834   0.23455   0.00000  Uiso   1.00
C280   C     0.73222   0.35127   0.20882   0.00000  Uiso   1.00
C281   C     0.74042   0.32672   0.19137   0.00000  Uiso   1.00
C282   C     0.77213   0.34174   0.24387   0.00000  Uiso   1.00
C283   C     0.94965   0.28272   0.35228   0.00000  Uiso   1.00
C284   C     0.96712   0.25652   0.34987   0.00000  Uiso   1.00
C285   C     0.96022   0.23525   0.32755   0.00000  Uiso   1.00
C286   C     0.93590   0.23992   0.30811   0.00000  Uiso   1.00
C287   C     0.91820   0.26597   0.31075   0.00000  Uiso   1.00
C288   C     0.92522   0.28735   0.33294   0.00000  Uiso   1.00
H139   H     0.72730   0.32320   0.17131   0.00000  Uiso   1.00
H140   H     0.78237   0.34886   0.26464   0.00000  Uiso   1.00
H141   H     0.95478   0.29972   0.36894   0.00000  Uiso   1.00
H142   H     0.91197   0.30772   0.33529   0.00000  Uiso   1.00
H143   H     0.97368   0.21503   0.32518   0.00000  Uiso   1.00
H144   H     0.93096   0.22314   0.29108   0.00000  Uiso   1.00
B24    B     0.89094   0.27123   0.28905   0.00000  Uiso   1.00
O47    O     0.73566   0.38328   0.24923   0.00000  Uiso   1.00
O48    O     0.79716   0.20851   0.12931   0.00000  Uiso   1.00
C289   C     0.46781   0.47645   0.43335   0.00000  Uiso   1.00
C290   C     0.48477   0.45018   0.44174   0.00000  Uiso   1.00
C291   C     0.50261   0.48455   0.39166   0.00000  Uiso   1.00
C292   C     0.51778   0.45882   0.39873   0.00000  Uiso   1.00
C293   C     0.50958   0.44137   0.42328   0.00000  Uiso   1.00
C294   C     0.47787   0.49387   0.40826   0.00000  Uiso   1.00
C295   C     0.30035   0.60228   0.46728   0.00000  Uiso   1.00
C296   C     0.28288   0.59987   0.49348   0.00000  Uiso   1.00
C297   C     0.28978   0.57755   0.51475   0.00000  Uiso   1.00
C298   C     0.31410   0.55811   0.51008   0.00000  Uiso   1.00
C299   C     0.33180   0.56075   0.48403   0.00000  Uiso   1.00
C300   C     0.32478   0.58294   0.46265   0.00000  Uiso   1.00
H145   H     0.52270   0.42131   0.42680   0.00000  Uiso   1.00
H146   H     0.46763   0.51464   0.40114   0.00000  Uiso   1.00
H147   H     0.29522   0.61894   0.45028   0.00000  Uiso   1.00
H148   H     0.33803   0.58529   0.44228   0.00000  Uiso   1.00
H149   H     0.27632   0.57518   0.53497   0.00000  Uiso   1.00
H150   H     0.31904   0.54108   0.52686   0.00000  Uiso   1.00
B25    B     0.35906   0.53905   0.47877   0.00000  Uiso   1.00
O49    O     0.51434   0.49923   0.36672   0.00000  Uiso   1.00
O50    O     0.45284   0.37931   0.54149   0.00000  Uiso   1.00
C301   C     0.96781   0.97645   0.93335   0.00000  Uiso   1.00
C302   C     0.98477   0.95018   0.94174   0.00000  Uiso   1.00
C303   C     0.00261   0.98455   0.89166   0.00000  Uiso   1.00
C304   C     0.01778   0.95882   0.89873   0.00000  Uiso   1.00
C305   C     0.00958   0.94137   0.92328   0.00000  Uiso   1.00
C306   C     0.97787   0.99387   0.90826   0.00000  Uiso   1.00
C307   C     0.80035   0.10228   0.96728   0.00000  Uiso   1.00
C308   C     0.78288   0.09987   0.99348   0.00000  Uiso   1.00
C309   C     0.78978   0.07755   0.01475   0.00000  Uiso   1.00
C310   C     0.81410   0.05811   0.01008   0.00000  Uiso   1.00
C311   C     0.83180   0.06075   0.98403   0.00000  Uiso   1.00
C312   C     0.82478   0.08294   0.96265   0.00000  Uiso   1.00
H151   H     0.02270   0.92131   0.92680   0.00000  Uiso   1.00
H152   H     0.96763   0.01464   0.90114   0.00000  Uiso   1.00
H153   H     0.79522   0.11894   0.95028   0.00000  Uiso   1.00
H154   H     0.83803   0.08529   0.94228   0.00000  Uiso   1.00
H155   H     0.77632   0.07518   0.03497   0.00000  Uiso   1.00
H156   H     0.81904   0.04108   0.02686   0.00000  Uiso   1.00
B26    B     0.85906   0.03905   0.97877   0.00000  Uiso   1.00
O51    O     0.01434   0.99923   0.86672   0.00000  Uiso   1.00
O52    O     0.95284   0.87931   0.04149   0.00000  Uiso   1.00
C313   C     0.03219   0.52355   0.93335   0.00000  Uiso   1.00
C314   C     0.01523   0.54982   0.94174   0.00000  Uiso   1.00
C315   C     0.99739   0.51545   0.89166   0.00000  Uiso   1.00
C316   C     0.98222   0.54118   0.89873   0.00000  Uiso   1.00
C317   C     0.99042   0.55863   0.92328   0.00000  Uiso   1.00
C318   C     0.02213   0.50613   0.90826   0.00000  Uiso   1.00
C319   C     0.19965   0.39772   0.96728   0.00000  Uiso   1.00
C320   C     0.21712   0.40013   0.99348   0.00000  Uiso   1.00
C321   C     0.21022   0.42245   0.01475   0.00000  Uiso   1.00
C322   C     0.18590   0.44189   0.01008   0.00000  Uiso   1.00
C323   C     0.16820   0.43925   0.98403   0.00000  Uiso   1.00
C324   C     0.17522   0.41706   0.96265   0.00000  Uiso   1.00
H157   H     0.97730   0.57869   0.92680   0.00000  Uiso   1.00
H158   H     0.03237   0.48536   0.90114   0.00000  Uiso   1.00
H159   H     0.20478   0.38106   0.95028   0.00000  Uiso   1.00
H160   H     0.16197   0.41471   0.94228   0.00000  Uiso   1.00
H161   H     0.22368   0.42482   0.03497   0.00000  Uiso   1.00
H162   H     0.18096   0.45892   0.02686   0.00000  Uiso   1.00
B27    B     0.14094   0.46095   0.97877   0.00000  Uiso   1.00
O53    O     0.98566   0.50077   0.86672   0.00000  Uiso   1.00
O54    O     0.04716   0.62069   0.04149   0.00000  Uiso   1.00
C325   C     0.53219   0.02355   0.43335   0.00000  Uiso   1.00
C326   C     0.51523   0.04982   0.44174   0.00000  Uiso   1.00
C327   C     0.49739   0.01545   0.39166   0.00000  Uiso   1.00
C328   C     0.48222   0.04118   0.39873   0.00000  Uiso   1.00
C329   C     0.49042   0.05863   0.42328   0.00000  Uiso   1.00
C330   C     0.52213   0.00613   0.40826   0.00000  Uiso   1.00
C331   C     0.69965   0.89772   0.46728   0.00000  Uiso   1.00
C332   C     0.71712   0.90013   0.49348   0.00000  Uiso   1.00
C333   C     0.71022   0.92245   0.51475   0.00000  Uiso   1.00
C334   C     0.68590   0.94189   0.51008   0.00000  Uiso   1.00
C335   C     0.66820   0.93925   0.48403   0.00000  Uiso   1.00
C336   C     0.67522   0.91706   0.46265   0.00000  Uiso   1.00
H163   H     0.47730   0.07869   0.42680   0.00000  Uiso   1.00
H164   H     0.53237   0.98536   0.40114   0.00000  Uiso   1.00
H165   H     0.70478   0.88106   0.45028   0.00000  Uiso   1.00
H166   H     0.66197   0.91471   0.44228   0.00000  Uiso   1.00
H167   H     0.72368   0.92482   0.53497   0.00000  Uiso   1.00
H168   H     0.68096   0.95892   0.52686   0.00000  Uiso   1.00
B28    B     0.64094   0.96095   0.47877   0.00000  Uiso   1.00
O55    O     0.48566   0.00077   0.36672   0.00000  Uiso   1.00
O56    O     0.54716   0.12069   0.54149   0.00000  Uiso   1.00
C337   C     0.96781   0.02355   0.56665   0.00000  Uiso   1.00
C338   C     0.98477   0.04982   0.55826   0.00000  Uiso   1.00
C339   C     0.00261   0.01545   0.60834   0.00000  Uiso   1.00
C340   C     0.01778   0.04118   0.60127   0.00000  Uiso   1.00
C341   C     0.00958   0.05863   0.57672   0.00000  Uiso   1.00
C342   C     0.97787   0.00613   0.59174   0.00000  Uiso   1.00
C343   C     0.80035   0.89772   0.53272   0.00000  Uiso   1.00
C344   C     0.78288   0.90013   0.50652   0.00000  Uiso   1.00
C345   C     0.78978   0.92245   0.48525   0.00000  Uiso   1.00
C346   C     0.81410   0.94189   0.48992   0.00000  Uiso   1.00
C347   C     0.83180   0.93925   0.51597   0.00000  Uiso   1.00
C348   C     0.82478   0.91706   0.53735   0.00000  Uiso   1.00
H169   H     0.02270   0.07869   0.57320   0.00000  Uiso   1.00
H170   H     0.96763   0.98536   0.59886   0.00000  Uiso   1.00
H171   H     0.79522   0.88106   0.54972   0.00000  Uiso   1.00
H172   H     0.83803   0.91471   0.55772   0.00000  Uiso   1.00
H173   H     0.77632   0.92482   0.46503   0.00000  Uiso   1.00
H174   H     0.81904   0.95892   0.47314   0.00000  Uiso   1.00
B29    B     0.85906   0.96095   0.52123   0.00000  Uiso   1.00
O57    O     0.01434   0.00077   0.63328   0.00000  Uiso   1.00
O58    O     0.95284   0.12069   0.45851   0.00000  Uiso   1.00
C349   C     0.46781   0.52355   0.06665   0.00000  Uiso   1.00
C350   C     0.48477   0.54982   0.05826   0.00000  Uiso   1.00
C351   C     0.50261   0.51545   0.10834   0.00000  Uiso   1.00
C352   C     0.51778   0.54118   0.10127   0.00000  Uiso   1.00
C353   C     0.50958   0.55863   0.07672   0.00000  Uiso   1.00
C354   C     0.47787   0.50613   0.09174   0.00000  Uiso   1.00
C355   C     0.30035   0.39772   0.03272   0.00000  Uiso   1.00
C356   C     0.28288   0.40013   0.00652   0.00000  Uiso   1.00
C357   C     0.28978   0.42245   0.98525   0.00000  Uiso   1.00
C358   C     0.31410   0.44189   0.98992   0.00000  Uiso   1.00
C359   C     0.33180   0.43925   0.01597   0.00000  Uiso   1.00
C360   C     0.32478   0.41706   0.03735   0.00000  Uiso   1.00
H175   H     0.52270   0.57869   0.07320   0.00000  Uiso   1.00
H176   H     0.46763   0.48536   0.09886   0.00000  Uiso   1.00
H177   H     0.29522   0.38106   0.04972   0.00000  Uiso   1.00
H178   H     0.33803   0.41471   0.05772   0.00000  Uiso   1.00
H179   H     0.27632   0.42482   0.96503   0.00000  Uiso   1.00
H180   H     0.31904   0.45892   0.97314   0.00000  Uiso   1.00
B30    B     0.35906   0.46095   0.02123   0.00000  Uiso   1.00
O59    O     0.51434   0.50077   0.13328   0.00000  Uiso   1.00
O60    O     0.45284   0.62069   0.95851   0.00000  Uiso   1.00
C361   C     0.53219   0.97645   0.06665   0.00000  Uiso   1.00
C362   C     0.51523   0.95018   0.05826   0.00000  Uiso   1.00
C363   C     0.49739   0.98455   0.10834   0.00000  Uiso   1.00
C364   C     0.48222   0.95882   0.10127   0.00000  Uiso   1.00
C365   C     0.49042   0.94137   0.07672   0.00000  Uiso   1.00
C366   C     0.52213   0.99387   0.09174   0.00000  Uiso   1.00
C367   C     0.69965   0.10228   0.03272   0.00000  Uiso   1.00
C368   C     0.71712   0.09987   0.00652   0.00000  Uiso   1.00
C369   C     0.71022   0.07755   0.98525   0.00000  Uiso   1.00
C370   C     0.68590   0.05811   0.98992   0.00000  Uiso   1.00
C371   C     0.66820   0.06075   0.01597   0.00000  Uiso   1.00
C372   C     0.67522   0.08294   0.03735   0.00000  Uiso   1.00
H181   H     0.47730   0.92131   0.07320   0.00000  Uiso   1.00
H182   H     0.53237   0.01464   0.09886   0.00000  Uiso   1.00
H183   H     0.70478   0.11894   0.04972   0.00000  Uiso   1.00
H184   H     0.66197   0.08529   0.05772   0.00000  Uiso   1.00
H185   H     0.72368   0.07518   0.96503   0.00000  Uiso   1.00
H186   H     0.68096   0.04108   0.97314   0.00000  Uiso   1.00
B31    B     0.64094   0.03905   0.02123   0.00000  Uiso   1.00
O61    O     0.48566   0.99923   0.13328   0.00000  Uiso   1.00
O62    O     0.54716   0.87931   0.95851   0.00000  Uiso   1.00
C373   C     0.03219   0.47645   0.56665   0.00000  Uiso   1.00
C374   C     0.01523   0.45018   0.55826   0.00000  Uiso   1.00
C375   C     0.99739   0.48455   0.60834   0.00000  Uiso   1.00
C376   C     0.98222   0.45882   0.60127   0.00000  Uiso   1.00
C377   C     0.99042   0.44137   0.57672   0.00000  Uiso   1.00
C378   C     0.02213   0.49387   0.59174   0.00000  Uiso   1.00
C379   C     0.19965   0.60228   0.53272   0.00000  Uiso   1.00
C380   C     0.21712   0.59987   0.50652   0.00000  Uiso   1.00
C381   C     0.21022   0.57755   0.48525   0.00000  Uiso   1.00
C382   C     0.18590   0.55811   0.48992   0.00000  Uiso   1.00
C383   C     0.16820   0.56075   0.51597   0.00000  Uiso   1.00
C384   C     0.17522   0.58294   0.53735   0.00000  Uiso   1.00
H187   H     0.97730   0.42131   0.57320   0.00000  Uiso   1.00
H188   H     0.03237   0.51464   0.59886   0.00000  Uiso   1.00
H189   H     0.20478   0.61894   0.54972   0.00000  Uiso   1.00
H190   H     0.16197   0.58529   0.55772   0.00000  Uiso   1.00
H191   H     0.22368   0.57518   0.46503   0.00000  Uiso   1.00
H192   H     0.18096   0.54108   0.47314   0.00000  Uiso   1.00
B32    B     0.14094   0.53905   0.52123   0.00000  Uiso   1.00
O63    O     0.98566   0.49923   0.63328   0.00000  Uiso   1.00
O64    O     0.04716   0.37931   0.45851   0.00000  Uiso   1.00
C385   C     0.47645   0.43335   0.46781   0.00000  Uiso   1.00
C386   C     0.45018   0.44174   0.48477   0.00000  Uiso   1.00
C387   C     0.48455   0.39166   0.50261   0.00000  Uiso   1.00
C388   C     0.45882   0.39873   0.51778   0.00000  Uiso   1.00
C389   C     0.44137   0.42328   0.50958   0.00000  Uiso   1.00
C390   C     0.49387   0.40826   0.47787   0.00000  Uiso   1.00
C391   C     0.60228   0.46728   0.30035   0.00000  Uiso   1.00
C392   C     0.59987   0.49348   0.28288   0.00000  Uiso   1.00
C393   C     0.57755   0.51475   0.28978   0.00000  Uiso   1.00
C394   C     0.55811   0.51008   0.31410   0.00000  Uiso   1.00
C395   C     0.56075   0.48403   0.33180   0.00000  Uiso   1.00
C396   C     0.58294   0.46265   0.32478   0.00000  Uiso   1.00
H193   H     0.42131   0.42680   0.52270   0.00000  Uiso   1.00
H194   H     0.51464   0.40114   0.46763   0.00000  Uiso   1.00
H195   H     0.61894   0.45028   0.29522   0.00000  Uiso   1.00
H196   H     0.58529   0.44228   0.33803   0.00000  Uiso   1.00
H197   H     0.57518   0.53497   0.27632   0.00000  Uiso   1.00
H198   H     0.54108   0.52686   0.31904   0.00000  Uiso   1.00
B33    B     0.53905   0.47877   0.35906   0.00000  Uiso   1.00
O65    O     0.49923   0.36672   0.51434   0.00000  Uiso   1.00
O66    O     0.37931   0.54149   0.45284   0.00000  Uiso   1.00
C397   C     0.97645   0.93335   0.96781   0.00000  Uiso   1.00
C398   C     0.95018   0.94174   0.98477   0.00000  Uiso   1.00
C399   C     0.98455   0.89166   0.00261   0.00000  Uiso   1.00
C400   C     0.95882   0.89873   0.01778   0.00000  Uiso   1.00
C401   C     0.94137   0.92328   0.00958   0.00000  Uiso   1.00
C402   C     0.99387   0.90826   0.97787   0.00000  Uiso   1.00
C403   C     0.10228   0.96728   0.80035   0.00000  Uiso   1.00
C404   C     0.09987   0.99348   0.78288   0.00000  Uiso   1.00
C405   C     0.07755   0.01475   0.78978   0.00000  Uiso   1.00
C406   C     0.05811   0.01008   0.81410   0.00000  Uiso   1.00
C407   C     0.06075   0.98403   0.83180   0.00000  Uiso   1.00
C408   C     0.08294   0.96265   0.82478   0.00000  Uiso   1.00
H199   H     0.92131   0.92680   0.02270   0.00000  Uiso   1.00
H200   H     0.01464   0.90114   0.96763   0.00000  Uiso   1.00
H201   H     0.11894   0.95028   0.79522   0.00000  Uiso   1.00
H202   H     0.08529   0.94228   0.83803   0.00000  Uiso   1.00
H203   H     0.07518   0.03497   0.77632   0.00000  Uiso   1.00
H204   H     0.04108   0.02686   0.81904   0.00000  Uiso   1.00
B34    B     0.03905   0.97877   0.85906   0.00000  Uiso   1.00
O67    O     0.99923   0.86672   0.01434   0.00000  Uiso   1.00
O68    O     0.87931   0.04149   0.95284   0.00000  Uiso   1.00
C409   C     0.52355   0.93335   0.03219   0.00000  Uiso   1.00
C410   C     0.54982   0.94174   0.01523   0.00000  Uiso   1.00
C411   C     0.51545   0.89166   0.99739   0.00000  Uiso   1.00
C412   C     0.54118   0.89873   0.98222   0.00000  Uiso   1.00
C413   C     0.55863   0.92328   0.99042   0.00000  Uiso   1.00
C414   C     0.50613   0.90826   0.02213   0.00000  Uiso   1.00
C415   C     0.39772   0.96728   0.19965   0.00000  Uiso   1.00
C416   C     0.40013   0.99348   0.21712   0.00000  Uiso   1.00
C417   C     0.42245   0.01475   0.21022   0.00000  Uiso   1.00
C418   C     0.44189   0.01008   0.18590   0.00000  Uiso   1.00
C419   C     0.43925   0.98403   0.16820   0.00000  Uiso   1.00
C420   C     0.41706   0.96265   0.17522   0.00000  Uiso   1.00
H205   H     0.57869   0.92680   0.97730   0.00000  Uiso   1.00
H206   H     0.48536   0.90114   0.03237   0.00000  Uiso   1.00
H207   H     0.38106   0.95028   0.20478   0.00000  Uiso   1.00
H208   H     0.41471   0.94228   0.16197   0.00000  Uiso   1.00
H209   H     0.42482   0.03497   0.22368   0.00000  Uiso   1.00
H210   H     0.45892   0.02686   0.18096   0.00000  Uiso   1.00
B35    B     0.46095   0.97877   0.14094   0.00000  Uiso   1.00
O69    O     0.50077   0.86672   0.98566   0.00000  Uiso   1.00
O70    O     0.62069   0.04149   0.04716   0.00000  Uiso   1.00
C421   C     0.02355   0.43335   0.53219   0.00000  Uiso   1.00
C422   C     0.04982   0.44174   0.51523   0.00000  Uiso   1.00
C423   C     0.01545   0.39166   0.49739   0.00000  Uiso   1.00
C424   C     0.04118   0.39873   0.48222   0.00000  Uiso   1.00
C425   C     0.05863   0.42328   0.49042   0.00000  Uiso   1.00
C426   C     0.00613   0.40826   0.52213   0.00000  Uiso   1.00
C427   C     0.89772   0.46728   0.69965   0.00000  Uiso   1.00
C428   C     0.90013   0.49348   0.71712   0.00000  Uiso   1.00
C429   C     0.92245   0.51475   0.71022   0.00000  Uiso   1.00
C430   C     0.94189   0.51008   0.68590   0.00000  Uiso   1.00
C431   C     0.93925   0.48403   0.66820   0.00000  Uiso   1.00
C432   C     0.91706   0.46265   0.67522   0.00000  Uiso   1.00
H211   H     0.07869   0.42680   0.47730   0.00000  Uiso   1.00
H212   H     0.98536   0.40114   0.53237   0.00000  Uiso   1.00
H213   H     0.88106   0.45028   0.70478   0.00000  Uiso   1.00
H214   H     0.91471   0.44228   0.66197   0.00000  Uiso   1.00
H215   H     0.92482   0.53497   0.72368   0.00000  Uiso   1.00
H216   H     0.95892   0.52686   0.68096   0.00000  Uiso   1.00
B36    B     0.96095   0.47877   0.64094   0.00000  Uiso   1.00
O71    O     0.00077   0.36672   0.48566   0.00000  Uiso   1.00
O72    O     0.12069   0.54149   0.54716   0.00000  Uiso   1.00
C433   C     0.02355   0.56665   0.96781   0.00000  Uiso   1.00
C434   C     0.04982   0.55826   0.98477   0.00000  Uiso   1.00
C435   C     0.01545   0.60834   0.00261   0.00000  Uiso   1.00
C436   C     0.04118   0.60127   0.01778   0.00000  Uiso   1.00
C437   C     0.05863   0.57672   0.00958   0.00000  Uiso   1.00
C438   C     0.00613   0.59174   0.97787   0.00000  Uiso   1.00
C439   C     0.89772   0.53272   0.80035   0.00000  Uiso   1.00
C440   C     0.90013   0.50652   0.78288   0.00000  Uiso   1.00
C441   C     0.92245   0.48525   0.78978   0.00000  Uiso   1.00
C442   C     0.94189   0.48992   0.81410   0.00000  Uiso   1.00
C443   C     0.93925   0.51597   0.83180   0.00000  Uiso   1.00
C444   C     0.91706   0.53735   0.82478   0.00000  Uiso   1.00
H217   H     0.07869   0.57320   0.02270   0.00000  Uiso   1.00
H218   H     0.98536   0.59886   0.96763   0.00000  Uiso   1.00
H219   H     0.88106   0.54972   0.79522   0.00000  Uiso   1.00
H220   H     0.91471   0.55772   0.83803   0.00000  Uiso   1.00
H221   H     0.92482   0.46503   0.77632   0.00000  Uiso   1.00
H222   H     0.95892   0.47314   0.81904   0.00000  Uiso   1.00
B37    B     0.96095   0.52123   0.85906   0.00000  Uiso   1.00
O73    O     0.00077   0.63328   0.01434   0.00000  Uiso   1.00
O74    O     0.12069   0.45851   0.95284   0.00000  Uiso   1.00
C445   C     0.52355   0.06665   0.46781   0.00000  Uiso   1.00
C446   C     0.54982   0.05826   0.48477   0.00000  Uiso   1.00
C447   C     0.51545   0.10834   0.50261   0.00000  Uiso   1.00
C448   C     0.54118   0.10127   0.51778   0.00000  Uiso   1.00
C449   C     0.55863   0.07672   0.50958   0.00000  Uiso   1.00
C450   C     0.50613   0.09174   0.47787   0.00000  Uiso   1.00
C451   C     0.39772   0.03272   0.30035   0.00000  Uiso   1.00
C452   C     0.40013   0.00652   0.28288   0.00000  Uiso   1.00
C453   C     0.42245   0.98525   0.28978   0.00000  Uiso   1.00
C454   C     0.44189   0.98992   0.31410   0.00000  Uiso   1.00
C455   C     0.43925   0.01597   0.33180   0.00000  Uiso   1.00
C456   C     0.41706   0.03735   0.32478   0.00000  Uiso   1.00
H223   H     0.57869   0.07320   0.52270   0.00000  Uiso   1.00
H224   H     0.48536   0.09886   0.46763   0.00000  Uiso   1.00
H225   H     0.38106   0.04972   0.29522   0.00000  Uiso   1.00
H226   H     0.41471   0.05772   0.33803   0.00000  Uiso   1.00
H227   H     0.42482   0.96503   0.27632   0.00000  Uiso   1.00
H228   H     0.45892   0.97314   0.31904   0.00000  Uiso   1.00
B38    B     0.46095   0.02123   0.35906   0.00000  Uiso   1.00
O75    O     0.50077   0.13328   0.51434   0.00000  Uiso   1.00
O76    O     0.62069   0.95851   0.45284   0.00000  Uiso   1.00
C457   C     0.97645   0.06665   0.53219   0.00000  Uiso   1.00
C458   C     0.95018   0.05826   0.51523   0.00000  Uiso   1.00
C459   C     0.98455   0.10834   0.49739   0.00000  Uiso   1.00
C460   C     0.95882   0.10127   0.48222   0.00000  Uiso   1.00
C461   C     0.94137   0.07672   0.49042   0.00000  Uiso   1.00
C462   C     0.99387   0.09174   0.52213   0.00000  Uiso   1.00
C463   C     0.10228   0.03272   0.69965   0.00000  Uiso   1.00
C464   C     0.09987   0.00652   0.71712   0.00000  Uiso   1.00
C465   C     0.07755   0.98525   0.71022   0.00000  Uiso   1.00
C466   C     0.05811   0.98992   0.68590   0.00000  Uiso   1.00
C467   C     0.06075   0.01597   0.66820   0.00000  Uiso   1.00
C468   C     0.08294   0.03735   0.67522   0.00000  Uiso   1.00
H229   H     0.92131   0.07320   0.47730   0.00000  Uiso   1.00
H230   H     0.01464   0.09886   0.53237   0.00000  Uiso   1.00
H231   H     0.11894   0.04972   0.70478   0.00000  Uiso   1.00
H232   H     0.08529   0.05772   0.66197   0.00000  Uiso   1.00
H233   H     0.07518   0.96503   0.72368   0.00000  Uiso   1.00
H234   H     0.04108   0.97314   0.68096   0.00000  Uiso   1.00
B39    B     0.03905   0.02123   0.64094   0.00000  Uiso   1.00
O77    O     0.99923   0.13328   0.48566   0.00000  Uiso   1.00
O78    O     0.87931   0.95851   0.54716   0.00000  Uiso   1.00
C469   C     0.47645   0.56665   0.03219   0.00000  Uiso   1.00
C470   C     0.45018   0.55826   0.01523   0.00000  Uiso   1.00
C471   C     0.48455   0.60834   0.99739   0.00000  Uiso   1.00
C472   C     0.45882   0.60127   0.98222   0.00000  Uiso   1.00
C473   C     0.44137   0.57672   0.99042   0.00000  Uiso   1.00
C474   C     0.49387   0.59174   0.02213   0.00000  Uiso   1.00
C475   C     0.60228   0.53272   0.19965   0.00000  Uiso   1.00
C476   C     0.59987   0.50652   0.21712   0.00000  Uiso   1.00
C477   C     0.57755   0.48525   0.21022   0.00000  Uiso   1.00
C478   C     0.55811   0.48992   0.18590   0.00000  Uiso   1.00
C479   C     0.56075   0.51597   0.16820   0.00000  Uiso   1.00
C480   C     0.58294   0.53735   0.17522   0.00000  Uiso   1.00
H235   H     0.42131   0.57320   0.97730   0.00000  Uiso   1.00
H236   H     0.51464   0.59886   0.03237   0.00000  Uiso   1.00
H237   H     0.61894   0.54972   0.20478   0.00000  Uiso   1.00
H238   H     0.58529   0.55772   0.16197   0.00000  Uiso   1.00
H239   H     0.57518   0.46503   0.22368   0.00000  Uiso   1.00
H240   H     0.54108   0.47314   0.18096   0.00000  Uiso   1.00
B40    B     0.53905   0.52123   0.14094   0.00000  Uiso   1.00
O79    O     0.49923   0.63328   0.98566   0.00000  Uiso   1.00
O80    O     0.37931   0.45851   0.04716   0.00000  Uiso   1.00
C481   C     0.43335   0.46781   0.47645   0.00000  Uiso   1.00
C482   C     0.44174   0.48477   0.45018   0.00000  Uiso   1.00
C483   C     0.39166   0.50261   0.48455   0.00000  Uiso   1.00
C484   C     0.39873   0.51778   0.45882   0.00000  Uiso   1.00
C485   C     0.42328   0.50958   0.44137   0.00000  Uiso   1.00
C486   C     0.40826   0.47787   0.49387   0.00000  Uiso   1.00
C487   C     0.46728   0.30035   0.60228   0.00000  Uiso   1.00
C488   C     0.49348   0.28288   0.59987   0.00000  Uiso   1.00
C489   C     0.51475   0.28978   0.57755   0.00000  Uiso   1.00
C490   C     0.51008   0.31410   0.55811   0.00000  Uiso   1.00
C491   C     0.48403   0.33180   0.56075   0.00000  Uiso   1.00
C492   C     0.46265   0.32478   0.58294   0.00000  Uiso   1.00
H241   H     0.42680   0.52270   0.42131   0.00000  Uiso   1.00
H242   H     0.40114   0.46763   0.51464   0.00000  Uiso   1.00
H243   H     0.45028   0.29522   0.61894   0.00000  Uiso   1.00
H244   H     0.44228   0.33803   0.58529   0.00000  Uiso   1.00
H245   H     0.53497   0.27632   0.57518   0.00000  Uiso   1.00
H246   H     0.52686   0.31904   0.54108   0.00000  Uiso   1.00
B41    B     0.47877   0.35906   0.53905   0.00000  Uiso   1.00
O81    O     0.36672   0.51434   0.49923   0.00000  Uiso   1.00
O82    O     0.54149   0.45284   0.37931   0.00000  Uiso   1.00
C493   C     0.93335   0.96781   0.97645   0.00000  Uiso   1.00
C494   C     0.94174   0.98477   0.95018   0.00000  Uiso   1.00
C495   C     0.89166   0.00261   0.98455   0.00000  Uiso   1.00
C496   C     0.89873   0.01778   0.95882   0.00000  Uiso   1.00
C497   C     0.92328   0.00958   0.94137   0.00000  Uiso   1.00
C498   C     0.90826   0.97787   0.99387   0.00000  Uiso   1.00
C499   C     0.96728   0.80035   0.10228   0.00000  Uiso   1.00
C500   C     0.99348   0.78288   0.09987   0.00000  Uiso   1.00
C501   C     0.01475   0.78978   0.07755   0.00000  Uiso   1.00
C502   C     0.01008   0.81410   0.05811   0.00000  Uiso   1.00
C503   C     0.98403   0.83180   0.06075   0.00000  Uiso   1.00
C504   C     0.96265   0.82478   0.08294   0.00000  Uiso   1.00
H247   H     0.92680   0.02270   0.92131   0.00000  Uiso   1.00
H248   H     0.90114   0.96763   0.01464   0.00000  Uiso   1.00
H249   H     0.95028   0.79522   0.11894   0.00000  Uiso   1.00
H250   H     0.94228   0.83803   0.08529   0.00000  Uiso   1.00
H251   H     0.03497   0.77632   0.07518   0.00000  Uiso   1.00
H252   H     0.02686   0.81904   0.04108   0.00000  Uiso   1.00
B42    B     0.97877   0.85906   0.03905   0.00000  Uiso   1.00
O83    O     0.86672   0.01434   0.99923   0.00000  Uiso   1.00
O84    O     0.04149   0.95284   0.87931   0.00000  Uiso   1.00
C505   C     0.93335   0.03219   0.52355   0.00000  Uiso   1.00
C506   C     0.94174   0.01523   0.54982   0.00000  Uiso   1.00
C507   C     0.89166   0.99739   0.51545   0.00000  Uiso   1.00
C508   C     0.89873   0.98222   0.54118   0.00000  Uiso   1.00
C509   C     0.92328   0.99042   0.55863   0.00000  Uiso   1.00
C510   C     0.90826   0.02213   0.50613   0.00000  Uiso   1.00
C511   C     0.96728   0.19965   0.39772   0.00000  Uiso   1.00
C512   C     0.99348   0.21712   0.40013   0.00000  Uiso   1.00
C513   C     0.01475   0.21022   0.42245   0.00000  Uiso   1.00
C514   C     0.01008   0.18590   0.44189   0.00000  Uiso   1.00
C515   C     0.98403   0.16820   0.43925   0.00000  Uiso   1.00
C516   C     0.96265   0.17522   0.41706   0.00000  Uiso   1.00
H253   H     0.92680   0.97730   0.57869   0.00000  Uiso   1.00
H254   H     0.90114   0.03237   0.48536   0.00000  Uiso   1.00
H255   H     0.95028   0.20478   0.38106   0.00000  Uiso   1.00
H256   H     0.94228   0.16197   0.41471   0.00000  Uiso   1.00
H257   H     0.03497   0.22368   0.42482   0.00000  Uiso   1.00
H258   H     0.02686   0.18096   0.45892   0.00000  Uiso   1.00
B43    B     0.97877   0.14094   0.46095   0.00000  Uiso   1.00
O85    O     0.86672   0.98566   0.50077   0.00000  Uiso   1.00
O86    O     0.04149   0.04716   0.62069   0.00000  Uiso   1.00
C517   C     0.43335   0.53219   0.02355   0.00000  Uiso   1.00
C518   C     0.44174   0.51523   0.04982   0.00000  Uiso   1.00
C519   C     0.39166   0.49739   0.01545   0.00000  Uiso   1.00
C520   C     0.39873   0.48222   0.04118   0.00000  Uiso   1.00
C521   C     0.42328   0.49042   0.05863   0.00000  Uiso   1.00
C522   C     0.40826   0.52213   0.00613   0.00000  Uiso   1.00
C523   C     0.46728   0.69965   0.89772   0.00000  Uiso   1.00
C524   C     0.49348   0.71712   0.90013   0.00000  Uiso   1.00
C525   C     0.51475   0.71022   0.92245   0.00000  Uiso   1.00
C526   C     0.51008   0.68590   0.94189   0.00000  Uiso   1.00
C527   C     0.48403   0.66820   0.93925   0.00000  Uiso   1.00
C528   C     0.46265   0.67522   0.91706   0.00000  Uiso   1.00
H259   H     0.42680   0.47730   0.07869   0.00000  Uiso   1.00
H260   H     0.40114   0.53237   0.98536   0.00000  Uiso   1.00
H261   H     0.45028   0.70478   0.88106   0.00000  Uiso   1.00
H262   H     0.44228   0.66197   0.91471   0.00000  Uiso   1.00
H263   H     0.53497   0.72368   0.92482   0.00000  Uiso   1.00
H264   H     0.52686   0.68096   0.95892   0.00000  Uiso   1.00
B44    B     0.47877   0.64094   0.96095   0.00000  Uiso   1.00
O87    O     0.36672   0.48566   0.00077   0.00000  Uiso   1.00
O88    O     0.54149   0.54716   0.12069   0.00000  Uiso   1.00
C529   C     0.56665   0.96781   0.02355   0.00000  Uiso   1.00
C530   C     0.55826   0.98477   0.04982   0.00000  Uiso   1.00
C531   C     0.60834   0.00261   0.01545   0.00000  Uiso   1.00
C532   C     0.60127   0.01778   0.04118   0.00000  Uiso   1.00
C533   C     0.57672   0.00958   0.05863   0.00000  Uiso   1.00
C534   C     0.59174   0.97787   0.00613   0.00000  Uiso   1.00
C535   C     0.53272   0.80035   0.89772   0.00000  Uiso   1.00
C536   C     0.50652   0.78288   0.90013   0.00000  Uiso   1.00
C537   C     0.48525   0.78978   0.92245   0.00000  Uiso   1.00
C538   C     0.48992   0.81410   0.94189   0.00000  Uiso   1.00
C539   C     0.51597   0.83180   0.93925   0.00000  Uiso   1.00
C540   C     0.53735   0.82478   0.91706   0.00000  Uiso   1.00
H265   H     0.57320   0.02270   0.07869   0.00000  Uiso   1.00
H266   H     0.59886   0.96763   0.98536   0.00000  Uiso   1.00
H267   H     0.54972   0.79522   0.88106   0.00000  Uiso   1.00
H268   H     0.55772   0.83803   0.91471   0.00000  Uiso   1.00
H269   H     0.46503   0.77632   0.92482   0.00000  Uiso   1.00
H270   H     0.47314   0.81904   0.95892   0.00000  Uiso   1.00
B45    B     0.52123   0.85906   0.96095   0.00000  Uiso   1.00
O89    O     0.63328   0.01434   0.00077   0.00000  Uiso   1.00
O90    O     0.45851   0.95284   0.12069   0.00000  Uiso   1.00
C541   C     0.06665   0.46781   0.52355   0.00000  Uiso   1.00
C542   C     0.05826   0.48477   0.54982   0.00000  Uiso   1.00
C543   C     0.10834   0.50261   0.51545   0.00000  Uiso   1.00
C544   C     0.10127   0.51778   0.54118   0.00000  Uiso   1.00
C545   C     0.07672   0.50958   0.55863   0.00000  Uiso   1.00
C546   C     0.09174   0.47787   0.50613   0.00000  Uiso   1.00
C547   C     0.03272   0.30035   0.39772   0.00000  Uiso   1.00
C548   C     0.00652   0.28288   0.40013   0.00000  Uiso   1.00
C549   C     0.98525   0.28978   0.42245   0.00000  Uiso   1.00
C550   C     0.98992   0.31410   0.44189   0.00000  Uiso   1.00
C551   C     0.01597   0.33180   0.43925   0.00000  Uiso   1.00
C552   C     0.03735   0.32478   0.41706   0.00000  Uiso   1.00
H271   H     0.07320   0.52270   0.57869   0.00000  Uiso   1.00
H272   H     0.09886   0.46763   0.48536   0.00000  Uiso   1.00
H273   H     0.04972   0.29522   0.38106   0.00000  Uiso   1.00
H274   H     0.05772   0.33803   0.41471   0.00000  Uiso   1.00
H275   H     0.96503   0.27632   0.42482   0.00000  Uiso   1.00
H276   H     0.97314   0.31904   0.45892   0.00000  Uiso   1.00
B46    B     0.02123   0.35906   0.46095   0.00000  Uiso   1.00
O91    O     0.13328   0.51434   0.50077   0.00000  Uiso   1.00
O92    O     0.95851   0.45284   0.62069   0.00000  Uiso   1.00
C553   C     0.06665   0.53219   0.97645   0.00000  Uiso   1.00
C554   C     0.05826   0.51523   0.95018   0.00000  Uiso   1.00
C555   C     0.10834   0.49739   0.98455   0.00000  Uiso   1.00
C556   C     0.10127   0.48222   0.95882   0.00000  Uiso   1.00
C557   C     0.07672   0.49042   0.94137   0.00000  Uiso   1.00
C558   C     0.09174   0.52213   0.99387   0.00000  Uiso   1.00
C559   C     0.03272   0.69965   0.10228   0.00000  Uiso   1.00
C560   C     0.00652   0.71712   0.09987   0.00000  Uiso   1.00
C561   C     0.98525   0.71022   0.07755   0.00000  Uiso   1.00
C562   C     0.98992   0.68590   0.05811   0.00000  Uiso   1.00
C563   C     0.01597   0.66820   0.06075   0.00000  Uiso   1.00
C564   C     0.03735   0.67522   0.08294   0.00000  Uiso   1.00
H277   H     0.07320   0.47730   0.92131   0.00000  Uiso   1.00
H278   H     0.09886   0.53237   0.01464   0.00000  Uiso   1.00
H279   H     0.04972   0.70478   0.11894   0.00000  Uiso   1.00
H280   H     0.05772   0.66197   0.08529   0.00000  Uiso   1.00
H281   H     0.96503   0.72368   0.07518   0.00000  Uiso   1.00
H282   H     0.97314   0.68096   0.04108   0.00000  Uiso   1.00
B47    B     0.02123   0.64094   0.03905   0.00000  Uiso   1.00
O93    O     0.13328   0.48566   0.99923   0.00000  Uiso   1.00
O94    O     0.95851   0.54716   0.87931   0.00000  Uiso   1.00
C565   C     0.56665   0.03219   0.47645   0.00000  Uiso   1.00
C566   C     0.55826   0.01523   0.45018   0.00000  Uiso   1.00
C567   C     0.60834   0.99739   0.48455   0.00000  Uiso   1.00
C568   C     0.60127   0.98222   0.45882   0.00000  Uiso   1.00
C569   C     0.57672   0.99042   0.44137   0.00000  Uiso   1.00
C570   C     0.59174   0.02213   0.49387   0.00000  Uiso   1.00
C571   C     0.53272   0.19965   0.60228   0.00000  Uiso   1.00
C572   C     0.50652   0.21712   0.59987   0.00000  Uiso   1.00
C573   C     0.48525   0.21022   0.57755   0.00000  Uiso   1.00
C574   C     0.48992   0.18590   0.55811   0.00000  Uiso   1.00
C575   C     0.51597   0.16820   0.56075   0.00000  Uiso   1.00
C576   C     0.53735   0.17522   0.58294   0.00000  Uiso   1.00
H283   H     0.57320   0.97730   0.42131   0.00000  Uiso   1.00
H284   H     0.59886   0.03237   0.51464   0.00000  Uiso   1.00
H285   H     0.54972   0.20478   0.61894   0.00000  Uiso   1.00
H286   H     0.55772   0.16197   0.58529   0.00000  Uiso   1.00
H287   H     0.46503   0.22368   0.57518   0.00000  Uiso   1.00
H288   H     0.47314   0.18096   0.54108   0.00000  Uiso   1.00
B48    B     0.52123   0.14094   0.53905   0.00000  Uiso   1.00
O95    O     0.63328   0.98566   0.49923   0.00000  Uiso   1.00
O96    O     0.45851   0.04716   0.37931   0.00000  Uiso   1.00
Si1    Si    0.37500   0.00000   0.25000   0.00000  Uiso   1.00
Si2    Si    0.12500   0.00000   0.75000   0.00000  Uiso   1.00
Si3    Si    0.62500   0.50000   0.25000   0.00000  Uiso   1.00
Si4    Si    0.87500   0.50000   0.75000   0.00000  Uiso   1.00
Si5    Si    0.25000   0.37500   0.00000   0.00000  Uiso   1.00
Si6    Si    0.75000   0.12500   0.00000   0.00000  Uiso   1.00
Si7    Si    0.25000   0.62500   0.50000   0.00000  Uiso   1.00
Si8    Si    0.75000   0.87500   0.50000   0.00000  Uiso   1.00
Si9    Si    0.00000   0.25000   0.37500   0.00000  Uiso   1.00
Si10   Si    0.00000   0.75000   0.12500   0.00000  Uiso   1.00
Si11   Si    0.50000   0.25000   0.62500   0.00000  Uiso   1.00
Si12   Si    0.50000   0.75000   0.87500   0.00000  Uiso   1.00
loop_
_geom_bond_atom_site_label_1
_geom_bond_atom_site_label_2
_geom_bond_distance
_geom_bond_site_symmetry_2
_ccdc_geom_bond_type
C1     C2      1.453   .     S
C1     C194    1.442   .     S
C1     C6      1.443   .     S
C2     C97     1.442   .     S
C2     C5      1.443   .     S
C3     C4      1.378   .     S
C3     C6      1.401   .     S
C3     O1      1.402   .     S
C4     C5      1.401   .     S
C4     O34     1.402   .     S
C5     H1      1.087   .     S
C6     H2      1.087   .     S
C7     H3      1.093   .     S
C7     C12     1.414   .     S
C7     C8      1.418   .     S
C8     C9      1.418   .     S
C8     Si1     1.880   .     S
C9     H5      1.095   .     S
C9     C10     1.413   .     S
C10    H6      1.096   .     S
C10    C11     1.419   .     S
C11    C12     1.419   .     S
C11    B1      1.582   .     S
C12    H4      1.096   .     S
B1     O18     1.481   .     S
B1     O33     1.480   .     S
O1     B9      1.480   .     S
O2     C100    1.402   .     S
O2     B17     1.481   .     S
C13    C206    1.442   .     S
C13    C14     1.453   .     S
C13    C18     1.443   .     S
C14    C17     1.443   .     S
C14    C109    1.442   .     S
C15    C18     1.401   .     S
C15    O3      1.402   .     S
C15    C16     1.378   .     S
C16    O36     1.402   .     S
C16    C17     1.401   .     S
C17    H7      1.087   .     S
C18    H8      1.087   .     S
C19    H9      1.093   .     S
C19    C24     1.414   .     S
C19    C20     1.418   .     S
C20    Si4     1.880   .     S
C20    C21     1.418   .     S
C21    C22     1.413   .     S
C21    H11     1.095   .     S
C22    C23     1.419   .     S
C22    H12     1.096   .     S
C23    B2      1.582   .     S
C23    C24     1.419   .     S
C24    H10     1.096   .     S
B2     O35     1.480   .     S
B2     O20     1.481   .     S
O3     B10     1.480   .     S
O4     B18     1.481   .     S
O4     C112    1.402   .     S
C25    C266    1.442   .     S
C25    C26     1.453   .     S
C25    C30     1.443   .     S
C26    C29     1.443   .     S
C26    C145    1.442   .     S
C27    C28     1.378   .     S
C27    C30     1.401   .     S
C27    O5      1.402   .     S
C28    O46     1.402   .     S
C28    C29     1.401   .     S
C29    H13     1.087   .     S
C30    H14     1.087   .     S
C31    C36     1.414   .     S
C31    H15     1.093   .     S
C31    C32     1.418   .     S
C32    C33     1.418   .     S
C33    C34     1.413   .     S
C33    H17     1.095   .     S
C34    C35     1.419   .     S
C34    H18     1.096   .     S
C35    B3      1.582   .     S
C35    C36     1.419   .     S
C36    H16     1.096   .     S
B3     O45     1.480   .     S
B3     O26     1.481   .     S
O5     B13     1.480   .     S
O6     B23     1.481   .     S
O6     C148    1.402   .     S
C37    C38     1.453   .     S
C37    C278    1.442   .     S
C37    C42     1.443   .     S
C38    C157    1.442   .     S
C38    C41     1.443   .     S
C39    C42     1.401   .     S
C39    C40     1.378   .     S
C39    O7      1.402   .     S
C40    O48     1.402   .     S
C40    C41     1.401   .     S
C41    H19     1.087   .     S
C42    H20     1.087   .     S
C43    H21     1.093   .     S
C43    C48     1.414   .     S
C43    C44     1.418   .     S
C44    C45     1.418   .     S
C44    Si3     1.880   .     S
C45    C46     1.413   .     S
C45    H23     1.095   .     S
C46    H24     1.096   .     S
C46    C47     1.419   .     S
C47    B4      1.582   .     S
C47    C48     1.419   .     S
C48    H22     1.096   .     S
B4     O28     1.481   .     S
B4     O47     1.480   .     S
O7     B14     1.480   .     S
O8     C160    1.402   .     S
O8     B24     1.481   .     S
C49    C218    1.442   .     S
C49    C54     1.443   .     S
C49    C50     1.453   .     S
C50    C53     1.443   .     S
C50    C169    1.442   .     S
C51    C54     1.401   .     S
C51    C52     1.378   .     S
C51    O9      1.402   .     S
C52    C53     1.401   .     S
C52    O38     1.402   .     S
C53    H25     1.087   .     S
C54    H26     1.087   .     S
C55    H27     1.093   .     S
C55    C60     1.414   .     S
C55    C56     1.418   .     S
C56    Si3     1.880   .     S
C56    C57     1.418   .     S
C57    H29     1.095   .     S
C57    C58     1.413   .     S
C58    C59     1.419   .     S
C58    H30     1.096   .     S
C59    C60     1.419   .     S
C59    B5      1.582   .     S
C60    H28     1.096   .     S
B5     O30     1.481   .     S
B5     O37     1.480   .     S
O9     B15     1.480   .     S
O10    C172    1.402   .     S
O10    B19     1.481   .     S
C61    C230    1.442   .     S
C61    C62     1.453   .     S
C61    C66     1.443   .     S
C62    C181    1.442   .     S
C62    C65     1.443   .     S
C63    C64     1.378   .     S
C63    O11     1.402   .     S
C63    C66     1.401   .     S
C64    O40     1.402   .     S
C64    C65     1.401   .     S
C65    H31     1.087   .     S
C66    H32     1.087   .     S
C67    H33     1.093   .     S
C67    C72     1.414   .     S
C67    C68     1.418   .     S
C68    C69     1.418   .     S
C68    Si2     1.880   .     S
C69    C70     1.413   .     S
C69    H35     1.095   .     S
C70    C71     1.419   .     S
C70    H36     1.096   .     S
C71    B6      1.582   .     S
C71    C72     1.419   .     S
C72    H34     1.096   .     S
B6     O39     1.480   .     S
B6     O32     1.481   .     S
O11    B16     1.480   .     S
O12    B20     1.481   .     S
O12    C184    1.402   .     S
C73    C74     1.453   .     S
C73    C242    1.442   .     S
C73    C78     1.443   .     S
C74    C77     1.443   .     S
C74    C121    1.442   .     S
C75    C78     1.401   .     S
C75    O13     1.402   .     S
C75    C76     1.378   .     S
C76    O42     1.402   .     S
C76    C77     1.401   .     S
C77    H37     1.087   .     S
C78    H38     1.087   .     S
C79    H39     1.093   .     S
C79    C84     1.414   .     S
C79    C80     1.418   .     S
C80    C81     1.418   .     S
C80    Si4     1.880   .     S
C81    C82     1.413   .     S
C81    H41     1.095   .     S
C82    H42     1.096   .     S
C82    C83     1.419   .     S
C83    B7      1.582   .     S
C83    C84     1.419   .     S
C84    H40     1.096   .     S
B7     O41     1.480   .     S
B7     O22     1.481   .     S
O13    B11     1.480   .     S
O14    B21     1.481   .     S
O14    C124    1.402   .     S
C85    C254    1.442   .     S
C85    C86     1.453   .     S
C85    C90     1.443   .     S
C86    C89     1.443   .     S
C86    C133    1.442   .     S
C87    C88     1.378   .     S
C87    C90     1.401   .     S
C87    O15     1.402   .     S
C88    C89     1.401   .     S
C88    O44     1.402   .     S
C89    H43     1.087   .     S
C90    H44     1.087   .     S
C91    C96     1.414   .     S
C91    H45     1.093   .     S
C91    C92     1.418   .     S
C92    C93     1.418   .     S
C93    H47     1.095   .     S
C93    C94     1.413   .     S
C94    C95     1.419   .     S
C94    H48     1.096   .     S
C95    C96     1.419   .     S
C95    B8      1.582   .     S
C96    H46     1.096   .     S
B8     O24     1.481   .     S
B8     O43     1.480   .     S
O15    B12     1.480   .     S
O16    C136    1.402   .     S
O16    B22     1.481   .     S
C97    C98     1.453   .     S
C97    C102    1.443   .     S
C98    C193    1.442   .     S
C98    C101    1.443   .     S
C99    C100    1.378   .     S
C99    O17     1.402   .     S
C99    C102    1.401   .     S
C100   C101    1.401   .     S
C101   H49     1.087   .     S
C102   H50     1.087   .     S
C103   C104    1.418   .     S
C103   H51     1.093   .     S
C103   C108    1.414   .     S
C104   C105    1.418   .     S
C104   Si5     1.880   .     S
C105   H53     1.095   .     S
C105   C106    1.413   .     S
C106   C107    1.419   .     S
C106   H54     1.096   .     S
C107   C108    1.419   .     S
C107   B9      1.582   .     S
C108   H52     1.096   .     S
B9     O34     1.481   .     S
O17    B17     1.480   .     S
O18    C196    1.402   .     S
C109   C114    1.443   .     S
C109   C110    1.453   .     S
C110   C113    1.443   .     S
C110   C205    1.442   .     S
C111   C114    1.401   .     S
C111   O19     1.402   .     S
C111   C112    1.378   .     S
C112   C113    1.401   .     S
C113   H55     1.087   .     S
C114   H56     1.087   .     S
C115   H57     1.093   .     S
C115   C120    1.414   .     S
C115   C116    1.418   .     S
C116   Si8     1.880   .     S
C116   C117    1.418   .     S
C117   C118    1.413   .     S
C117   H59     1.095   .     S
C118   C119    1.419   .     S
C118   H60     1.096   .     S
C119   C120    1.419   .     S
C119   B10     1.582   .     S
C120   H58     1.096   .     S
B10    O36     1.481   .     S
O19    B18     1.480   .     S
O20    C208    1.402   .     S
C121   C122    1.453   .     S
C121   C126    1.443   .     S
C122   C125    1.443   .     S
C122   C241    1.442   .     S
C123   C124    1.378   .     S
C123   C126    1.401   .     S
C123   O21     1.402   .     S
C124   C125    1.401   .     S
C125   H61     1.087   .     S
C126   H62     1.087   .     S
C127   C132    1.414   .     S
C127   H63     1.093   .     S
C127   C128    1.418   .     S
C128   C129    1.418   .     S
C129   H65     1.095   .     S
C129   C130    1.413   .     S
C130   C131    1.419   .     S
C130   H66     1.096   .     S
C131   C132    1.419   .     S
C131   B11     1.582   .     S
C132   H64     1.096   .     S
B11    O42     1.481   .     S
O21    B21     1.480   .     S
O22    C244    1.402   .     S
C133   C138    1.443   .     S
C133   C134    1.453   .     S
C134   C253    1.442   .     S
C134   C137    1.443   .     S
C135   C138    1.401   .     S
C135   C136    1.378   .     S
C135   O23     1.402   .     S
C136   C137    1.401   .     S
C137   H67     1.087   .     S
C138   H68     1.087   .     S
C139   H69     1.093   .     S
C139   C140    1.418   .     S
C139   C144    1.414   .     S
C140   C141    1.418   .     S
C140   Si7     1.880   .     S
C141   C142    1.413   .     S
C141   H71     1.095   .     S
C142   H72     1.096   .     S
C142   C143    1.419   .     S
C143   B12     1.582   .     S
C143   C144    1.419   .     S
C144   H70     1.096   .     S
B12    O44     1.481   .     S
O23    B22     1.480   .     S
O24    C256    1.402   .     S
C145   C146    1.453   .     S
C145   C150    1.443   .     S
C146   C149    1.443   .     S
C146   C265    1.442   .     S
C147   C150    1.401   .     S
C147   O25     1.402   .     S
C147   C148    1.378   .     S
C148   C149    1.401   .     S
C149   H73     1.087   .     S
C150   H74     1.087   .     S
C151   H75     1.093   .     S
C151   C156    1.414   .     S
C151   C152    1.418   .     S
C152   Si7     1.880   .     S
C152   C153    1.418   .     S
C153   C154    1.413   .     S
C153   H77     1.095   .     S
C154   C155    1.419   .     S
C154   H78     1.096   .     S
C155   C156    1.419   .     S
C155   B13     1.582   .     S
C156   H76     1.096   .     S
B13    O46     1.481   .     S
O25    B23     1.480   .     S
O26    C268    1.402   .     S
C157   C162    1.443   .     S
C157   C158    1.453   .     S
C158   C277    1.442   .     S
C158   C161    1.443   .     S
C159   C160    1.378   .     S
C159   O27     1.402   .     S
C159   C162    1.401   .     S
C160   C161    1.401   .     S
C161   H79     1.087   .     S
C162   H80     1.087   .     S
C163   H81     1.093   .     S
C163   C164    1.418   .     S
C163   C168    1.414   .     S
C164   C165    1.418   .     S
C164   Si6     1.880   .     S
C165   H83     1.095   .     S
C165   C166    1.413   .     S
C166   C167    1.419   .     S
C166   H84     1.096   .     S
C167   B14     1.582   .     S
C167   C168    1.419   .     S
C168   H82     1.096   .     S
B14    O48     1.481   .     S
O27    B24     1.480   .     S
O28    C280    1.402   .     S
C169   C174    1.443   .     S
C169   C170    1.453   .     S
C170   C173    1.443   .     S
C170   C217    1.442   .     S
C171   C174    1.401   .     S
C171   O29     1.402   .     S
C171   C172    1.378   .     S
C172   C173    1.401   .     S
C173   H85     1.087   .     S
C174   H86     1.087   .     S
C175   H87     1.093   .     S
C175   C176    1.418   .     S
C175   C180    1.414   .     S
C176   C177    1.418   .     S
C176   Si8     1.880   .     S
C177   C178    1.413   .     S
C177   H89     1.095   .     S
C178   H90     1.096   .     S
C178   C179    1.419   .     S
C179   B15     1.582   .     S
C179   C180    1.419   .     S
C180   H88     1.096   .     S
B15    O38     1.481   .     S
O29    B19     1.480   .     S
O30    C220    1.402   .     S
C181   C186    1.443   .     S
C181   C182    1.453   .     S
C182   C185    1.443   .     S
C182   C229    1.442   .     S
C183   C184    1.378   .     S
C183   C186    1.401   .     S
C183   O31     1.402   .     S
C184   C185    1.401   .     S
C185   H91     1.087   .     S
C186   H92     1.087   .     S
C187   C192    1.414   .     S
C187   H93     1.093   .     S
C187   C188    1.418   .     S
C188   C189    1.418   .     S
C189   H95     1.095   .     S
C189   C190    1.413   .     S
C190   C191    1.419   .     S
C190   H96     1.096   .     S
C191   C192    1.419   .     S
C191   B16     1.582   .     S
C192   H94     1.096   .     S
B16    O40     1.481   .     S
O31    B20     1.480   .     S
O32    C232    1.402   .     S
C193   C194    1.453   .     S
C193   C198    1.443   .     S
C194   C197    1.443   .     S
C195   C196    1.378   .     S
C195   C198    1.401   .     S
C195   O33     1.402   .     S
C196   C197    1.401   .     S
C197   H97     1.087   .     S
C198   H98     1.087   .     S
C199   C204    1.414   .     S
C199   C200    1.418   .     S
C199   H99     1.093   .     S
C200   C201    1.418   .     S
C200   Si9     1.880   .     S
C201   H101    1.095   .     S
C201   C202    1.413   .     S
C202   C203    1.419   .     S
C202   H102    1.096   .     S
C203   C204    1.419   .     S
C203   B17     1.582   .     S
C204   H100    1.096   .     S
C205   C210    1.443   .     S
C205   C206    1.453   .     S
C206   C209    1.443   .     S
C207   C210    1.401   .     S
C207   O35     1.402   .     S
C207   C208    1.378   .     S
C208   C209    1.401   .     S
C209   H103    1.087   .     S
C210   H104    1.087   .     S
C211   H105    1.093   .     S
C211   C212    1.418   .     S
C211   C216    1.414   .     S
C212   Si12    1.880   .     S
C212   C213    1.418   .     S
C213   C214    1.413   .     S
C213   H107    1.095   .     S
C214   C215    1.419   .     S
C214   H108    1.096   .     S
C215   B18     1.582   .     S
C215   C216    1.419   .     S
C216   H106    1.096   .     S
C217   C222    1.443   .     S
C217   C218    1.453   .     S
C218   C221    1.443   .     S
C219   C220    1.378   .     S
C219   C222    1.401   .     S
C219   O37     1.402   .     S
C220   C221    1.401   .     S
C221   H109    1.087   .     S
C222   H110    1.087   .     S
C223   C228    1.414   .     S
C223   H111    1.093   .     S
C223   C224    1.418   .     S
C224   C225    1.418   .     S
C225   H113    1.095   .     S
C225   C226    1.413   .     S
C226   C227    1.419   .     S
C226   H114    1.096   .     S
C227   B19     1.582   .     S
C227   C228    1.419   .     S
C228   H112    1.096   .     S
C229   C234    1.443   .     S
C229   C230    1.453   .     S
C230   C233    1.443   .     S
C231   C234    1.401   .     S
C231   O39     1.402   .     S
C231   C232    1.378   .     S
C232   C233    1.401   .     S
C233   H115    1.087   .     S
C234   H116    1.087   .     S
C235   H117    1.093   .     S
C235   C236    1.418   .     S
C235   C240    1.414   .     S
C236   Si11    1.880   .     S
C236   C237    1.418   .     S
C237   C238    1.413   .     S
C237   H119    1.095   .     S
C238   H120    1.096   .     S
C238   C239    1.419   .     S
C239   B20     1.582   .     S
C239   C240    1.419   .     S
C240   H118    1.096   .     S
C241   C246    1.443   .     S
C241   C242    1.453   .     S
C242   C245    1.443   .     S
C243   C246    1.401   .     S
C243   O41     1.402   .     S
C243   C244    1.378   .     S
C244   C245    1.401   .     S
C245   H121    1.087   .     S
C246   H122    1.087   .     S
C247   H123    1.093   .     S
C247   C248    1.418   .     S
C247   C252    1.414   .     S
C248   Si11    1.880   .     S
C248   C249    1.418   .     S
C249   H125    1.095   .     S
C249   C250    1.413   .     S
C250   C251    1.419   .     S
C250   H126    1.096   .     S
C251   C252    1.419   .     S
C251   B21     1.582   .     S
C252   H124    1.096   .     S
C253   C258    1.443   .     S
C253   C254    1.453   .     S
C254   C257    1.443   .     S
C255   C256    1.378   .     S
C255   O43     1.402   .     S
C255   C258    1.401   .     S
C256   C257    1.401   .     S
C257   H127    1.087   .     S
C258   H128    1.087   .     S
C259   H129    1.093   .     S
C259   C264    1.414   .     S
C259   C260    1.418   .     S
C260   C261    1.418   .     S
C260   Si10    1.880   .     S
C261   H131    1.095   .     S
C261   C262    1.413   .     S
C262   C263    1.419   .     S
C262   H132    1.096   .     S
C263   B22     1.582   .     S
C263   C264    1.419   .     S
C264   H130    1.096   .     S
C265   C270    1.443   .     S
C265   C266    1.453   .     S
C266   C269    1.443   .     S
C267   C270    1.401   .     S
C267   O45     1.402   .     S
C267   C268    1.378   .     S
C268   C269    1.401   .     S
C269   H133    1.087   .     S
C270   H134    1.087   .     S
C271   H135    1.093   .     S
C271   C272    1.418   .     S
C271   C276    1.414   .     S
C272   Si12    1.880   .     S
C272   C273    1.418   .     S
C273   C274    1.413   .     S
C273   H137    1.095   .     S
C274   H138    1.096   .     S
C274   C275    1.419   .     S
C275   B23     1.582   .     S
C275   C276    1.419   .     S
C276   H136    1.096   .     S
C277   C278    1.453   .     S
C277   C282    1.443   .     S
C278   C281    1.443   .     S
C279   C280    1.378   .     S
C279   O47     1.402   .     S
C279   C282    1.401   .     S
C280   C281    1.401   .     S
C281   H139    1.087   .     S
C282   H140    1.087   .     S
C283   C288    1.414   .     S
C283   C284    1.418   .     S
C283   H141    1.093   .     S
C284   C285    1.418   .     S
C285   H143    1.095   .     S
C285   C286    1.413   .     S
C286   C287    1.419   .     S
C286   H144    1.096   .     S
C287   C288    1.419   .     S
C287   B24     1.582   .     S
C288   H142    1.096   .     S
C289   C290    1.453   .     S
C289   C482    1.442   .     S
C289   C294    1.443   .     S
C290   C293    1.443   .     S
C290   C385    1.442   .     S
C291   O49     1.402   .     S
C291   C294    1.401   .     S
C291   C292    1.378   .     S
C292   O82     1.402   .     S
C292   C293    1.401   .     S
C293   H145    1.087   .     S
C294   H146    1.087   .     S
C295   H147    1.093   .     S
C295   C300    1.414   .     S
C295   C296    1.418   .     S
C296   Si7     1.880   .     S
C296   C297    1.418   .     S
C297   H149    1.095   .     S
C297   C298    1.413   .     S
C298   C299    1.419   .     S
C298   H150    1.096   .     S
C299   C300    1.419   .     S
C299   B25     1.582   .     S
C300   H148    1.096   .     S
B25    O66     1.481   .     S
B25    O81     1.480   .     S
O49    B33     1.480   .     S
O50    C388    1.402   .     S
O50    B41     1.481   .     S
C301   C306    1.443   .     S
C301   C494    1.442   .     S
C301   C302    1.453   .     S
C302   C397    1.442   .     S
C303   O51     1.402   .     S
C303   C304    1.378   .     S
C304   O84     1.402   .     S
C304   C305    1.401   .     S
C305   H151    1.087   .     S
C307   C308    1.418   .     S
C307   C312    1.414   .     S
C307   H153    1.093   .     S
C309   H155    1.095   .     S
C309   C310    1.413   .     S
C310   H156    1.096   .     S
C311   C312    1.419   .     S
C311   B26     1.582   .     S
C312   H154    1.096   .     S
B26    O83     1.480   .     S
B26    O68     1.481   .     S
O51    B34     1.480   .     S
O52    C400    1.402   .     S
O52    B42     1.481   .     S
C313   C318    1.443   .     S
C313   C554    1.442   .     S
C313   C314    1.453   .     S
C314   C433    1.442   .     S
C315   O53     1.402   .     S
C315   C316    1.378   .     S
C316   O94     1.402   .     S
C316   C317    1.401   .     S
C317   H157    1.087   .     S
C318   H158    1.087   .     S
C319   C320    1.418   .     S
C319   C324    1.414   .     S
C319   H159    1.093   .     S
C321   C322    1.413   .     S
C321   H161    1.095   .     S
C322   H162    1.096   .     S
C323   B27     1.582   .     S
C323   C324    1.419   .     S
C324   H160    1.096   .     S
B27    O93     1.480   .     S
B27    O74     1.481   .     S
O53    B37     1.480   .     S
O54    C436    1.402   .     S
O54    B47     1.481   .     S
C325   C326    1.453   .     S
C325   C566    1.442   .     S
C325   C330    1.443   .     S
C326   C329    1.443   .     S
C326   C445    1.442   .     S
C327   C328    1.378   .     S
C327   C330    1.401   .     S
C327   O55     1.402   .     S
C328   O96     1.402   .     S
C328   C329    1.401   .     S
C329   H163    1.087   .     S
C331   H165    1.093   .     S
C331   C336    1.414   .     S
C331   C332    1.418   .     S
C332   C333    1.418   .     S
C332   Si8     1.880   .     S
C333   C334    1.413   .     S
C333   H167    1.095   .     S
C334   C335    1.419   .     S
C334   H168    1.096   .     S
C335   B28     1.582   .     S
C335   C336    1.419   .     S
C336   H166    1.096   .     S
B28    O76     1.481   .     S
B28    O95     1.480   .     S
O55    B38     1.480   .     S
O56    B48     1.481   .     S
O56    C448    1.402   .     S
C337   C338    1.453   .     S
C337   C342    1.443   .     S
C337   C506    1.442   .     S
C338   C457    1.442   .     S
C339   C340    1.378   .     S
C339   O57     1.402   .     S
C340   O86     1.402   .     S
C340   C341    1.401   .     S
C341   H169    1.087   .     S
C343   C344    1.418   .     S
C343   C348    1.414   .     S
C343   H171    1.093   .     S
C344   C345    1.418   .     S
C344   Si8     1.880   .     S
C345   C346    1.413   .     S
C345   H173    1.095   .     S
C346   C347    1.419   .     S
C346   H174    1.096   .     S
C347   C348    1.419   .     S
C347   B29     1.582   .     S
C348   H172    1.096   .     S
B29    O85     1.480   .     S
B29    O78     1.481   .     S
O57    B39     1.480   .     S
O58    B43     1.481   .     S
O58    C460    1.402   .     S
C349   C354    1.443   .     S
C349   C350    1.453   .     S
C349   C518    1.442   .     S
C350   C469    1.442   .     S
C350   C353    1.443   .     S
C351   C354    1.401   .     S
C351   C352    1.378   .     S
C351   O59     1.402   .     S
C352   C353    1.401   .     S
C352   O88     1.402   .     S
C353   H175    1.087   .     S
C354   H176    1.087   .     S
C355   C360    1.414   .     S
C355   C356    1.418   .     S
C355   H177    1.093   .     S
C356   Si5     1.880   .     S
C357   H179    1.095   .     S
C357   C358    1.413   .     S
C358   H180    1.096   .     S
C359   B30     1.582   .     S
C359   C360    1.419   .     S
C360   H178    1.096   .     S
B30    O80     1.481   .     S
B30    O87     1.480   .     S
O59    B40     1.480   .     S
O60    C472    1.402   .     S
O60    B44     1.481   .     S
C361   C366    1.443   .     S
C361   C530    1.442   .     S
C361   C362    1.453   .     S
C362   C409    1.442   .     S
C362   C365    1.443   .     S
C363   C366    1.401   .     S
C363   C364    1.378   .     S
C363   O61     1.402   .     S
C364   C365    1.401   .     S
C364   O90     1.402   .     S
C365   H181    1.087   .     S
C367   C368    1.418   .     S
C367   C372    1.414   .     S
C367   H183    1.093   .     S
C368   Si6     1.880   .     S
C369   H185    1.095   .     S
C369   C370    1.413   .     S
C370   H186    1.096   .     S
C371   C372    1.419   .     S
C371   B31     1.582   .     S
C372   H184    1.096   .     S
B31    O70     1.481   .     S
B31    O89     1.480   .     S
O61    B35     1.480   .     S
O62    C412    1.402   .     S
O62    B45     1.481   .     S
C373   C374    1.453   .     S
C373   C378    1.443   .     S
C373   C542    1.442   .     S
C374   C421    1.442   .     S
C375   O63     1.402   .     S
C375   C376    1.378   .     S
C376   O92     1.402   .     S
C376   C377    1.401   .     S
C377   H187    1.087   .     S
C378   H188    1.087   .     S
C379   C380    1.418   .     S
C379   C384    1.414   .     S
C379   H189    1.093   .     S
C380   Si7     1.880   .     S
C380   C381    1.418   .     S
C381   C382    1.413   .     S
C381   H191    1.095   .     S
C382   C383    1.419   .     S
C382   H192    1.096   .     S
C383   C384    1.419   .     S
C383   B32     1.582   .     S
C384   H190    1.096   .     S
B32    O91     1.480   .     S
B32    O72     1.481   .     S
O63    B36     1.480   .     S
O64    B46     1.481   .     S
O64    C424    1.402   .     S
C385   C390    1.443   .     S
C385   C386    1.453   .     S
C386   C389    1.443   .     S
C386   C481    1.442   .     S
C387   O65     1.402   .     S
C387   C388    1.378   .     S
C387   C390    1.401   .     S
C388   C389    1.401   .     S
C389   H193    1.087   .     S
C390   H194    1.087   .     S
C391   C396    1.414   .     S
C391   C392    1.418   .     S
C391   H195    1.093   .     S
C392   Si3     1.880   .     S
C392   C393    1.418   .     S
C393   H197    1.095   .     S
C393   C394    1.413   .     S
C394   C395    1.419   .     S
C394   H198    1.096   .     S
C395   C396    1.419   .     S
C395   B33     1.582   .     S
C396   H196    1.096   .     S
B33    O82     1.481   .     S
O65    B41     1.480   .     S
O66    C484    1.402   .     S
C397   C402    1.443   .     S
C397   C398    1.453   .     S
C398   C493    1.442   .     S
C399   O67     1.402   .     S
C399   C400    1.378   .     S
C400   C401    1.401   .     S
C401   H199    1.087   .     S
C403   C404    1.418   .     S
C403   C408    1.414   .     S
C403   H201    1.093   .     S
C405   C406    1.413   .     S
C405   H203    1.095   .     S
C406   H204    1.096   .     S
C407   C408    1.419   .     S
C407   B34     1.582   .     S
C408   H202    1.096   .     S
B34    O84     1.481   .     S
O67    B42     1.480   .     S
O68    C496    1.402   .     S
C409   C414    1.443   .     S
C409   C410    1.453   .     S
C410   C529    1.442   .     S
C411   O69     1.402   .     S
C411   C412    1.378   .     S
C412   C413    1.401   .     S
C413   H205    1.087   .     S
C414   H206    1.087   .     S
C415   C416    1.418   .     S
C415   H207    1.093   .     S
C415   C420    1.414   .     S
C417   C418    1.413   .     S
C417   H209    1.095   .     S
C418   H210    1.096   .     S
C419   B35     1.582   .     S
C419   C420    1.419   .     S
C420   H208    1.096   .     S
B35    O90     1.481   .     S
O69    B45     1.480   .     S
O70    C532    1.402   .     S
C421   C422    1.453   .     S
C421   C426    1.443   .     S
C422   C425    1.443   .     S
C422   C541    1.442   .     S
C423   C424    1.378   .     S
C423   C426    1.401   .     S
C423   O71     1.402   .     S
C424   C425    1.401   .     S
C425   H211    1.087   .     S
C427   H213    1.093   .     S
C427   C432    1.414   .     S
C427   C428    1.418   .     S
C428   C429    1.418   .     S
C428   Si4     1.880   .     S
C429   C430    1.413   .     S
C429   H215    1.095   .     S
C430   C431    1.419   .     S
C430   H216    1.096   .     S
C431   C432    1.419   .     S
C431   B36     1.582   .     S
C432   H214    1.096   .     S
B36    O92     1.481   .     S
O71    B46     1.480   .     S
O72    C544    1.402   .     S
C433   C434    1.453   .     S
C433   C438    1.443   .     S
C434   C553    1.442   .     S
C435   C436    1.378   .     S
C435   O73     1.402   .     S
C436   C437    1.401   .     S
C437   H217    1.087   .     S
C439   C440    1.418   .     S
C439   C444    1.414   .     S
C439   H219    1.093   .     S
C440   C441    1.418   .     S
C440   Si4     1.880   .     S
C441   C442    1.413   .     S
C441   H221    1.095   .     S
C442   C443    1.419   .     S
C442   H222    1.096   .     S
C443   C444    1.419   .     S
C443   B37     1.582   .     S
C444   H220    1.096   .     S
B37    O94     1.481   .     S
O73    B47     1.480   .     S
O74    C556    1.402   .     S
C445   C450    1.443   .     S
C445   C446    1.453   .     S
C446   C449    1.443   .     S
C446   C565    1.442   .     S
C447   C448    1.378   .     S
C447   O75     1.402   .     S
C447   C450    1.401   .     S
C448   C449    1.401   .     S
C449   H223    1.087   .     S
C450   H224    1.087   .     S
C451   C456    1.414   .     S
C451   C452    1.418   .     S
C451   H225    1.093   .     S
C452   Si1     1.880   .     S
C453   H227    1.095   .     S
C453   C454    1.413   .     S
C454   H228    1.096   .     S
C455   B38     1.582   .     S
C455   C456    1.419   .     S
C456   H226    1.096   .     S
B38    O96     1.481   .     S
O75    B48     1.480   .     S
O76    C568    1.402   .     S
C457   C462    1.443   .     S
C457   C458    1.453   .     S
C458   C505    1.442   .     S
C458   C461    1.443   .     S
C459   C462    1.401   .     S
C459   C460    1.378   .     S
C459   O77     1.402   .     S
C460   C461    1.401   .     S
C461   H229    1.087   .     S
C463   C464    1.418   .     S
C463   C468    1.414   .     S
C463   H231    1.093   .     S
C464   Si2     1.880   .     S
C465   C466    1.413   .     S
C465   H233    1.095   .     S
C466   H234    1.096   .     S
C467   C468    1.419   .     S
C467   B39     1.582   .     S
C468   H232    1.096   .     S
B39    O86     1.481   .     S
O77    B43     1.480   .     S
O78    C508    1.402   .     S
C469   C470    1.453   .     S
C469   C474    1.443   .     S
C470   C517    1.442   .     S
C471   O79     1.402   .     S
C471   C472    1.378   .     S
C472   C473    1.401   .     S
C473   H235    1.087   .     S
C474   H236    1.087   .     S
C475   C476    1.418   .     S
C475   H237    1.093   .     S
C475   C480    1.414   .     S
C476   C477    1.418   .     S
C476   Si3     1.880   .     S
C477   C478    1.413   .     S
C477   H239    1.095   .     S
C478   H240    1.096   .     S
C478   C479    1.419   .     S
C479   C480    1.419   .     S
C479   B40     1.582   .     S
C480   H238    1.096   .     S
B40    O88     1.481   .     S
O79    B44     1.480   .     S
O80    C520    1.402   .     S
C481   C482    1.453   .     S
C481   C486    1.443   .     S
C482   C485    1.443   .     S
C483   O81     1.402   .     S
C483   C486    1.401   .     S
C483   C484    1.378   .     S
C484   C485    1.401   .     S
C485   H241    1.087   .     S
C486   H242    1.087   .     S
C487   H243    1.093   .     S
C487   C488    1.418   .     S
C487   C492    1.414   .     S
C488   Si11    1.880   .     S
C488   C489    1.418   .     S
C489   H245    1.095   .     S
C489   C490    1.413   .     S
C490   C491    1.419   .     S
C490   H246    1.096   .     S
C491   C492    1.419   .     S
C491   B41     1.582   .     S
C492   H244    1.096   .     S
C493   C498    1.443   .     S
C493   C494    1.453   .     S
C495   O83     1.402   .     S
C495   C496    1.378   .     S
C496   C497    1.401   .     S
C497   H247    1.087   .     S
C499   C500    1.418   .     S
C499   C504    1.414   .     S
C499   H249    1.093   .     S
C501   H251    1.095   .     S
C501   C502    1.413   .     S
C502   H252    1.096   .     S
C503   C504    1.419   .     S
C503   B42     1.582   .     S
C504   H250    1.096   .     S
C505   C510    1.443   .     S
C505   C506    1.453   .     S
C507   O85     1.402   .     S
C507   C508    1.378   .     S
C508   C509    1.401   .     S
C509   H253    1.087   .     S
C510   H254    1.087   .     S
C511   C512    1.418   .     S
C511   H255    1.093   .     S
C511   C516    1.414   .     S
C513   C514    1.413   .     S
C513   H257    1.095   .     S
C514   H258    1.096   .     S
C515   B43     1.582   .     S
C515   C516    1.419   .     S
C516   H256    1.096   .     S
C517   C518    1.453   .     S
C517   C522    1.443   .     S
C518   C521    1.443   .     S
C519   C520    1.378   .     S
C519   C522    1.401   .     S
C519   O87     1.402   .     S
C520   C521    1.401   .     S
C521   H259    1.087   .     S
C523   H261    1.093   .     S
C523   C528    1.414   .     S
C523   C524    1.418   .     S
C524   C525    1.418   .     S
C524   Si12    1.880   .     S
C525   C526    1.413   .     S
C525   H263    1.095   .     S
C526   C527    1.419   .     S
C526   H264    1.096   .     S
C527   C528    1.419   .     S
C527   B44     1.582   .     S
C528   H262    1.096   .     S
C529   C530    1.453   .     S
C529   C534    1.443   .     S
C531   C532    1.378   .     S
C531   O89     1.402   .     S
C532   C533    1.401   .     S
C533   H265    1.087   .     S
C535   H267    1.093   .     S
C535   C536    1.418   .     S
C535   C540    1.414   .     S
C536   C537    1.418   .     S
C536   Si12    1.880   .     S
C537   C538    1.413   .     S
C537   H269    1.095   .     S
C538   C539    1.419   .     S
C538   H270    1.096   .     S
C539   C540    1.419   .     S
C539   B45     1.582   .     S
C540   H268    1.096   .     S
C541   C546    1.443   .     S
C541   C542    1.453   .     S
C542   C545    1.443   .     S
C543   O91     1.402   .     S
C543   C546    1.401   .     S
C543   C544    1.378   .     S
C544   C545    1.401   .     S
C545   H271    1.087   .     S
C546   H272    1.087   .     S
C547   C552    1.414   .     S
C547   C548    1.418   .     S
C547   H273    1.093   .     S
C548   Si9     1.880   .     S
C549   H275    1.095   .     S
C549   C550    1.413   .     S
C550   H276    1.096   .     S
C551   B46     1.582   .     S
C551   C552    1.419   .     S
C552   H274    1.096   .     S
C553   C558    1.443   .     S
C553   C554    1.453   .     S
C554   C557    1.443   .     S
C555   C558    1.401   .     S
C555   O93     1.402   .     S
C555   C556    1.378   .     S
C556   C557    1.401   .     S
C557   H277    1.087   .     S
C559   C560    1.418   .     S
C559   C564    1.414   .     S
C559   H279    1.093   .     S
C560   Si10    1.880   .     S
C561   H281    1.095   .     S
C561   C562    1.413   .     S
C562   H282    1.096   .     S
C563   C564    1.419   .     S
C563   B47     1.582   .     S
C564   H280    1.096   .     S
C565   C566    1.453   .     S
C565   C570    1.443   .     S
C567   O95     1.402   .     S
C567   C568    1.378   .     S
C568   C569    1.401   .     S
C569   H283    1.087   .     S
C570   H284    1.087   .     S
C571   C572    1.418   .     S
C571   H285    1.093   .     S
C571   C576    1.414   .     S
C572   Si11    1.880   .     S
C572   C573    1.418   .     S
C573   C574    1.413   .     S
C573   H287    1.095   .     S
C574   H288    1.096   .     S
C574   C575    1.419   .     S
C575   C576    1.419   .     S
C575   B48     1.582   .     S
C576   H286    1.096   .     S
