data_COF-102
_audit_creation_date              2016-12-13
_audit_creation_method            'Materials Studio'
_symmetry_space_group_name_H-M    'P1'
_symmetry_Int_Tables_number       1
_symmetry_cell_setting            triclinic
loop_
_symmetry_equiv_pos_as_xyz
  x,y,z
_cell_length_a                    27.1771
_cell_length_b                    27.1771
_cell_length_c                    27.1771
_cell_angle_alpha                 90.0000
_cell_angle_beta                  90.0000
_cell_angle_gamma                 90.0000
loop_
_atom_site_label
_atom_site_type_symbol
_atom_site_fract_x
_atom_site_fract_y
_atom_site_fract_z
_atom_site_U_iso_or_equiv
_atom_site_adp_type
_atom_site_occupancy
O1     O     0.82850   0.74693   0.30298   0.00000  Uiso   1.00
B1     B     0.83533   0.71325   0.26216   0.00000  Uiso   1.00
C1     C     0.90490   0.76629   0.22758   0.00000  Uiso   1.00
H1     H     0.89552   0.79460   0.25352   0.00000  Uiso   1.00
C2     C     0.87894   0.72231   0.22630   0.00000  Uiso   1.00
C3     C     0.93120   0.69419   0.16049   0.00000  Uiso   1.00
H2     H     0.94125   0.66415   0.13717   0.00000  Uiso   1.00
C4     C     0.95634   0.73930   0.15960   0.00000  Uiso   1.00
C5     C     0.89252   0.68630   0.19272   0.00000  Uiso   1.00
H3     H     0.87377   0.65150   0.19176   0.00000  Uiso   1.00
C6     C     0.94306   0.77459   0.19484   0.00000  Uiso   1.00
H4     H     0.96223   0.80911   0.19660   0.00000  Uiso   1.00
O2     O     0.32850   0.24693   0.80298   0.00000  Uiso   1.00
B2     B     0.33533   0.21325   0.76216   0.00000  Uiso   1.00
C7     C     0.40490   0.26629   0.72758   0.00000  Uiso   1.00
H5     H     0.39552   0.29460   0.75352   0.00000  Uiso   1.00
C8     C     0.37894   0.22231   0.72630   0.00000  Uiso   1.00
C9     C     0.43120   0.19419   0.66049   0.00000  Uiso   1.00
H6     H     0.44125   0.16415   0.63717   0.00000  Uiso   1.00
C10    C     0.45634   0.23930   0.65960   0.00000  Uiso   1.00
C11    C     0.39252   0.18630   0.69272   0.00000  Uiso   1.00
H7     H     0.37377   0.15150   0.69176   0.00000  Uiso   1.00
C12    C     0.44306   0.27459   0.69484   0.00000  Uiso   1.00
H8     H     0.46223   0.30911   0.69660   0.00000  Uiso   1.00
O3     O     0.67150   0.25307   0.80298   0.00000  Uiso   1.00
B3     B     0.66467   0.28675   0.76216   0.00000  Uiso   1.00
C13    C     0.59510   0.23371   0.72758   0.00000  Uiso   1.00
H9     H     0.60448   0.20540   0.75352   0.00000  Uiso   1.00
C14    C     0.62106   0.27769   0.72630   0.00000  Uiso   1.00
C15    C     0.56880   0.30581   0.66049   0.00000  Uiso   1.00
H10    H     0.55875   0.33585   0.63717   0.00000  Uiso   1.00
C16    C     0.54366   0.26070   0.65960   0.00000  Uiso   1.00
C17    C     0.60748   0.31370   0.69272   0.00000  Uiso   1.00
H11    H     0.62623   0.34850   0.69176   0.00000  Uiso   1.00
C18    C     0.55694   0.22541   0.69484   0.00000  Uiso   1.00
H12    H     0.53777   0.19089   0.69660   0.00000  Uiso   1.00
O4     O     0.17150   0.75307   0.30298   0.00000  Uiso   1.00
B4     B     0.16467   0.78675   0.26216   0.00000  Uiso   1.00
C19    C     0.09510   0.73371   0.22758   0.00000  Uiso   1.00
H13    H     0.10448   0.70540   0.25352   0.00000  Uiso   1.00
C20    C     0.12106   0.77769   0.22630   0.00000  Uiso   1.00
C21    C     0.06880   0.80581   0.16049   0.00000  Uiso   1.00
H14    H     0.05875   0.83585   0.13717   0.00000  Uiso   1.00
C22    C     0.04366   0.76070   0.15960   0.00000  Uiso   1.00
C23    C     0.10748   0.81370   0.19272   0.00000  Uiso   1.00
H15    H     0.12623   0.84850   0.19176   0.00000  Uiso   1.00
C24    C     0.05694   0.72541   0.19484   0.00000  Uiso   1.00
H16    H     0.03777   0.69089   0.19660   0.00000  Uiso   1.00
O5     O     0.17150   0.24693   0.19702   0.00000  Uiso   1.00
B5     B     0.16467   0.21325   0.23784   0.00000  Uiso   1.00
C25    C     0.09510   0.26629   0.27242   0.00000  Uiso   1.00
H17    H     0.10448   0.29460   0.24648   0.00000  Uiso   1.00
C26    C     0.12106   0.22231   0.27370   0.00000  Uiso   1.00
C27    C     0.06880   0.19419   0.33951   0.00000  Uiso   1.00
H18    H     0.05875   0.16415   0.36283   0.00000  Uiso   1.00
C28    C     0.04366   0.23930   0.34040   0.00000  Uiso   1.00
C29    C     0.10748   0.18630   0.30728   0.00000  Uiso   1.00
H19    H     0.12623   0.15150   0.30824   0.00000  Uiso   1.00
C30    C     0.05694   0.27459   0.30516   0.00000  Uiso   1.00
H20    H     0.03777   0.30911   0.30340   0.00000  Uiso   1.00
O6     O     0.67150   0.74693   0.69702   0.00000  Uiso   1.00
B6     B     0.66467   0.71325   0.73784   0.00000  Uiso   1.00
C31    C     0.59510   0.76629   0.77242   0.00000  Uiso   1.00
H21    H     0.60448   0.79460   0.74648   0.00000  Uiso   1.00
C32    C     0.62106   0.72231   0.77370   0.00000  Uiso   1.00
C33    C     0.56880   0.69419   0.83951   0.00000  Uiso   1.00
H22    H     0.55875   0.66415   0.86283   0.00000  Uiso   1.00
C34    C     0.54366   0.73930   0.84040   0.00000  Uiso   1.00
C35    C     0.60748   0.68630   0.80728   0.00000  Uiso   1.00
H23    H     0.62623   0.65150   0.80824   0.00000  Uiso   1.00
C36    C     0.55694   0.77459   0.80516   0.00000  Uiso   1.00
H24    H     0.53777   0.80911   0.80340   0.00000  Uiso   1.00
O7     O     0.32850   0.75307   0.69702   0.00000  Uiso   1.00
B7     B     0.33533   0.78675   0.73784   0.00000  Uiso   1.00
C37    C     0.40490   0.73371   0.77242   0.00000  Uiso   1.00
H25    H     0.39552   0.70540   0.74648   0.00000  Uiso   1.00
C38    C     0.37894   0.77769   0.77370   0.00000  Uiso   1.00
C39    C     0.43120   0.80581   0.83951   0.00000  Uiso   1.00
H26    H     0.44125   0.83585   0.86283   0.00000  Uiso   1.00
C40    C     0.45634   0.76070   0.84040   0.00000  Uiso   1.00
C41    C     0.39252   0.81370   0.80728   0.00000  Uiso   1.00
H27    H     0.37377   0.84850   0.80824   0.00000  Uiso   1.00
C42    C     0.44306   0.72541   0.80516   0.00000  Uiso   1.00
H28    H     0.46223   0.69089   0.80340   0.00000  Uiso   1.00
O8     O     0.82850   0.25307   0.19702   0.00000  Uiso   1.00
B8     B     0.83533   0.28675   0.23784   0.00000  Uiso   1.00
C43    C     0.90490   0.23371   0.27242   0.00000  Uiso   1.00
H29    H     0.89552   0.20540   0.24648   0.00000  Uiso   1.00
C44    C     0.87894   0.27769   0.27370   0.00000  Uiso   1.00
C45    C     0.93120   0.30581   0.33951   0.00000  Uiso   1.00
H30    H     0.94125   0.33585   0.36283   0.00000  Uiso   1.00
C46    C     0.95634   0.26070   0.34040   0.00000  Uiso   1.00
C47    C     0.89252   0.31370   0.30728   0.00000  Uiso   1.00
H31    H     0.87377   0.34850   0.30824   0.00000  Uiso   1.00
C48    C     0.94306   0.22541   0.30516   0.00000  Uiso   1.00
H32    H     0.96223   0.19089   0.30340   0.00000  Uiso   1.00
O9     O     0.30298   0.82850   0.74693   0.00000  Uiso   1.00
B9     B     0.26216   0.83533   0.71325   0.00000  Uiso   1.00
C49    C     0.22758   0.90490   0.76629   0.00000  Uiso   1.00
H33    H     0.25352   0.89552   0.79460   0.00000  Uiso   1.00
C50    C     0.22630   0.87894   0.72231   0.00000  Uiso   1.00
C51    C     0.16049   0.93120   0.69419   0.00000  Uiso   1.00
H34    H     0.13717   0.94125   0.66415   0.00000  Uiso   1.00
C52    C     0.15960   0.95634   0.73930   0.00000  Uiso   1.00
C53    C     0.19272   0.89252   0.68630   0.00000  Uiso   1.00
H35    H     0.19176   0.87377   0.65150   0.00000  Uiso   1.00
C54    C     0.19484   0.94306   0.77459   0.00000  Uiso   1.00
H36    H     0.19660   0.96223   0.80911   0.00000  Uiso   1.00
O10    O     0.80298   0.32850   0.24693   0.00000  Uiso   1.00
B10    B     0.76216   0.33533   0.21325   0.00000  Uiso   1.00
C55    C     0.72758   0.40490   0.26629   0.00000  Uiso   1.00
H37    H     0.75352   0.39552   0.29460   0.00000  Uiso   1.00
C56    C     0.72630   0.37894   0.22231   0.00000  Uiso   1.00
C57    C     0.66049   0.43120   0.19419   0.00000  Uiso   1.00
H38    H     0.63717   0.44125   0.16415   0.00000  Uiso   1.00
C58    C     0.65960   0.45634   0.23930   0.00000  Uiso   1.00
C59    C     0.69272   0.39252   0.18630   0.00000  Uiso   1.00
H39    H     0.69176   0.37377   0.15150   0.00000  Uiso   1.00
C60    C     0.69484   0.44306   0.27459   0.00000  Uiso   1.00
H40    H     0.69660   0.46223   0.30911   0.00000  Uiso   1.00
O11    O     0.80298   0.67150   0.25307   0.00000  Uiso   1.00
B11    B     0.76216   0.66467   0.28675   0.00000  Uiso   1.00
C61    C     0.72758   0.59510   0.23371   0.00000  Uiso   1.00
H41    H     0.75352   0.60448   0.20540   0.00000  Uiso   1.00
C62    C     0.72630   0.62106   0.27769   0.00000  Uiso   1.00
C63    C     0.66049   0.56880   0.30581   0.00000  Uiso   1.00
H42    H     0.63717   0.55875   0.33585   0.00000  Uiso   1.00
C64    C     0.65960   0.54366   0.26070   0.00000  Uiso   1.00
C65    C     0.69272   0.60748   0.31370   0.00000  Uiso   1.00
H43    H     0.69176   0.62623   0.34850   0.00000  Uiso   1.00
C66    C     0.69484   0.55694   0.22541   0.00000  Uiso   1.00
H44    H     0.69660   0.53777   0.19089   0.00000  Uiso   1.00
O12    O     0.30298   0.17150   0.75307   0.00000  Uiso   1.00
B12    B     0.26216   0.16467   0.78675   0.00000  Uiso   1.00
C67    C     0.22758   0.09510   0.73371   0.00000  Uiso   1.00
H45    H     0.25352   0.10448   0.70540   0.00000  Uiso   1.00
C68    C     0.22630   0.12106   0.77769   0.00000  Uiso   1.00
C69    C     0.16049   0.06880   0.80581   0.00000  Uiso   1.00
H46    H     0.13717   0.05875   0.83585   0.00000  Uiso   1.00
C70    C     0.15960   0.04366   0.76070   0.00000  Uiso   1.00
C71    C     0.19272   0.10748   0.81370   0.00000  Uiso   1.00
H47    H     0.19176   0.12623   0.84850   0.00000  Uiso   1.00
C72    C     0.19484   0.05694   0.72541   0.00000  Uiso   1.00
H48    H     0.19660   0.03777   0.69089   0.00000  Uiso   1.00
O13    O     0.19702   0.17150   0.24693   0.00000  Uiso   1.00
B13    B     0.23784   0.16467   0.21325   0.00000  Uiso   1.00
C73    C     0.27242   0.09510   0.26629   0.00000  Uiso   1.00
H49    H     0.24648   0.10448   0.29460   0.00000  Uiso   1.00
C74    C     0.27370   0.12106   0.22231   0.00000  Uiso   1.00
C75    C     0.33951   0.06880   0.19419   0.00000  Uiso   1.00
H50    H     0.36283   0.05875   0.16415   0.00000  Uiso   1.00
C76    C     0.34040   0.04366   0.23930   0.00000  Uiso   1.00
C77    C     0.30728   0.10748   0.18630   0.00000  Uiso   1.00
H51    H     0.30824   0.12623   0.15150   0.00000  Uiso   1.00
C78    C     0.30516   0.05694   0.27459   0.00000  Uiso   1.00
H52    H     0.30340   0.03777   0.30911   0.00000  Uiso   1.00
O14    O     0.69702   0.67150   0.74693   0.00000  Uiso   1.00
B14    B     0.73784   0.66467   0.71325   0.00000  Uiso   1.00
C79    C     0.77242   0.59510   0.76629   0.00000  Uiso   1.00
H53    H     0.74648   0.60448   0.79460   0.00000  Uiso   1.00
C80    C     0.77370   0.62106   0.72231   0.00000  Uiso   1.00
C81    C     0.83951   0.56880   0.69419   0.00000  Uiso   1.00
H54    H     0.86283   0.55875   0.66415   0.00000  Uiso   1.00
C82    C     0.84040   0.54366   0.73930   0.00000  Uiso   1.00
C83    C     0.80728   0.60748   0.68630   0.00000  Uiso   1.00
H55    H     0.80824   0.62623   0.65150   0.00000  Uiso   1.00
C84    C     0.80516   0.55694   0.77459   0.00000  Uiso   1.00
H56    H     0.80340   0.53777   0.80911   0.00000  Uiso   1.00
O15    O     0.69702   0.32850   0.75307   0.00000  Uiso   1.00
B15    B     0.73784   0.33533   0.78675   0.00000  Uiso   1.00
C85    C     0.77242   0.40490   0.73371   0.00000  Uiso   1.00
H57    H     0.74648   0.39552   0.70540   0.00000  Uiso   1.00
C86    C     0.77370   0.37894   0.77769   0.00000  Uiso   1.00
C87    C     0.83951   0.43120   0.80581   0.00000  Uiso   1.00
H58    H     0.86283   0.44125   0.83585   0.00000  Uiso   1.00
C88    C     0.84040   0.45634   0.76070   0.00000  Uiso   1.00
C89    C     0.80728   0.39252   0.81370   0.00000  Uiso   1.00
H59    H     0.80824   0.37377   0.84850   0.00000  Uiso   1.00
C90    C     0.80516   0.44306   0.72541   0.00000  Uiso   1.00
H60    H     0.80340   0.46223   0.69089   0.00000  Uiso   1.00
O16    O     0.19702   0.82850   0.25307   0.00000  Uiso   1.00
B16    B     0.23784   0.83533   0.28675   0.00000  Uiso   1.00
C91    C     0.27242   0.90490   0.23371   0.00000  Uiso   1.00
H61    H     0.24648   0.89552   0.20540   0.00000  Uiso   1.00
C92    C     0.27370   0.87894   0.27769   0.00000  Uiso   1.00
C93    C     0.33951   0.93120   0.30581   0.00000  Uiso   1.00
H62    H     0.36283   0.94125   0.33585   0.00000  Uiso   1.00
C94    C     0.34040   0.95634   0.26070   0.00000  Uiso   1.00
C95    C     0.30728   0.89252   0.31370   0.00000  Uiso   1.00
H63    H     0.30824   0.87377   0.34850   0.00000  Uiso   1.00
C96    C     0.30516   0.94306   0.22541   0.00000  Uiso   1.00
H64    H     0.30340   0.96223   0.19089   0.00000  Uiso   1.00
O17    O     0.74693   0.30298   0.82850   0.00000  Uiso   1.00
B17    B     0.71325   0.26216   0.83533   0.00000  Uiso   1.00
C97    C     0.76629   0.22758   0.90490   0.00000  Uiso   1.00
H65    H     0.79460   0.25352   0.89552   0.00000  Uiso   1.00
C98    C     0.72231   0.22630   0.87894   0.00000  Uiso   1.00
C99    C     0.69419   0.16049   0.93120   0.00000  Uiso   1.00
H66    H     0.66415   0.13717   0.94125   0.00000  Uiso   1.00
C100   C     0.73930   0.15960   0.95634   0.00000  Uiso   1.00
C101   C     0.68630   0.19272   0.89252   0.00000  Uiso   1.00
H67    H     0.65150   0.19176   0.87377   0.00000  Uiso   1.00
C102   C     0.77459   0.19484   0.94306   0.00000  Uiso   1.00
H68    H     0.80911   0.19660   0.96223   0.00000  Uiso   1.00
O18    O     0.24693   0.80298   0.32850   0.00000  Uiso   1.00
B18    B     0.21325   0.76216   0.33533   0.00000  Uiso   1.00
C103   C     0.26629   0.72758   0.40490   0.00000  Uiso   1.00
H69    H     0.29460   0.75352   0.39552   0.00000  Uiso   1.00
C104   C     0.22231   0.72630   0.37894   0.00000  Uiso   1.00
C105   C     0.19419   0.66049   0.43120   0.00000  Uiso   1.00
H70    H     0.16415   0.63717   0.44125   0.00000  Uiso   1.00
C106   C     0.23930   0.65960   0.45634   0.00000  Uiso   1.00
C107   C     0.18630   0.69272   0.39252   0.00000  Uiso   1.00
H71    H     0.15150   0.69176   0.37377   0.00000  Uiso   1.00
C108   C     0.27459   0.69484   0.44306   0.00000  Uiso   1.00
H72    H     0.30911   0.69660   0.46223   0.00000  Uiso   1.00
O19    O     0.25307   0.80298   0.67150   0.00000  Uiso   1.00
B19    B     0.28675   0.76216   0.66467   0.00000  Uiso   1.00
C109   C     0.23371   0.72758   0.59510   0.00000  Uiso   1.00
H73    H     0.20540   0.75352   0.60448   0.00000  Uiso   1.00
C110   C     0.27769   0.72630   0.62106   0.00000  Uiso   1.00
C111   C     0.30581   0.66049   0.56880   0.00000  Uiso   1.00
H74    H     0.33585   0.63717   0.55875   0.00000  Uiso   1.00
C112   C     0.26070   0.65960   0.54366   0.00000  Uiso   1.00
C113   C     0.31370   0.69272   0.60748   0.00000  Uiso   1.00
H75    H     0.34850   0.69176   0.62623   0.00000  Uiso   1.00
C114   C     0.22541   0.69484   0.55694   0.00000  Uiso   1.00
H76    H     0.19089   0.69660   0.53777   0.00000  Uiso   1.00
O20    O     0.75307   0.30298   0.17150   0.00000  Uiso   1.00
B20    B     0.78675   0.26216   0.16467   0.00000  Uiso   1.00
C115   C     0.73371   0.22758   0.09510   0.00000  Uiso   1.00
H77    H     0.70540   0.25352   0.10448   0.00000  Uiso   1.00
C116   C     0.77769   0.22630   0.12106   0.00000  Uiso   1.00
C117   C     0.80581   0.16049   0.06880   0.00000  Uiso   1.00
H78    H     0.83585   0.13717   0.05875   0.00000  Uiso   1.00
C118   C     0.76070   0.15960   0.04366   0.00000  Uiso   1.00
C119   C     0.81370   0.19272   0.10748   0.00000  Uiso   1.00
H79    H     0.84850   0.19176   0.12623   0.00000  Uiso   1.00
C120   C     0.72541   0.19484   0.05694   0.00000  Uiso   1.00
H80    H     0.69089   0.19660   0.03777   0.00000  Uiso   1.00
O21    O     0.24693   0.19702   0.17150   0.00000  Uiso   1.00
B21    B     0.21325   0.23784   0.16467   0.00000  Uiso   1.00
C121   C     0.26629   0.27242   0.09510   0.00000  Uiso   1.00
H81    H     0.29460   0.24648   0.10448   0.00000  Uiso   1.00
C122   C     0.22231   0.27370   0.12106   0.00000  Uiso   1.00
C123   C     0.19419   0.33951   0.06880   0.00000  Uiso   1.00
H82    H     0.16415   0.36283   0.05875   0.00000  Uiso   1.00
C124   C     0.23930   0.34040   0.04366   0.00000  Uiso   1.00
C125   C     0.18630   0.30728   0.10748   0.00000  Uiso   1.00
H83    H     0.15150   0.30824   0.12623   0.00000  Uiso   1.00
C126   C     0.27459   0.30516   0.05694   0.00000  Uiso   1.00
H84    H     0.30911   0.30340   0.03777   0.00000  Uiso   1.00
O22    O     0.74693   0.69702   0.67150   0.00000  Uiso   1.00
B22    B     0.71325   0.73784   0.66467   0.00000  Uiso   1.00
C127   C     0.76629   0.77242   0.59510   0.00000  Uiso   1.00
H85    H     0.79460   0.74648   0.60448   0.00000  Uiso   1.00
C128   C     0.72231   0.77370   0.62106   0.00000  Uiso   1.00
C129   C     0.69419   0.83951   0.56880   0.00000  Uiso   1.00
H86    H     0.66415   0.86283   0.55875   0.00000  Uiso   1.00
C130   C     0.73930   0.84040   0.54366   0.00000  Uiso   1.00
C131   C     0.68630   0.80728   0.60748   0.00000  Uiso   1.00
H87    H     0.65150   0.80824   0.62623   0.00000  Uiso   1.00
C132   C     0.77459   0.80516   0.55694   0.00000  Uiso   1.00
H88    H     0.80911   0.80340   0.53777   0.00000  Uiso   1.00
O23    O     0.75307   0.69702   0.32850   0.00000  Uiso   1.00
B23    B     0.78675   0.73784   0.33533   0.00000  Uiso   1.00
C133   C     0.73371   0.77242   0.40490   0.00000  Uiso   1.00
H89    H     0.70540   0.74648   0.39552   0.00000  Uiso   1.00
C134   C     0.77769   0.77370   0.37894   0.00000  Uiso   1.00
C135   C     0.80581   0.83951   0.43120   0.00000  Uiso   1.00
H90    H     0.83585   0.86283   0.44125   0.00000  Uiso   1.00
C136   C     0.76070   0.84040   0.45634   0.00000  Uiso   1.00
C137   C     0.81370   0.80728   0.39252   0.00000  Uiso   1.00
H91    H     0.84850   0.80824   0.37377   0.00000  Uiso   1.00
C138   C     0.72541   0.80516   0.44306   0.00000  Uiso   1.00
H92    H     0.69089   0.80340   0.46223   0.00000  Uiso   1.00
O24    O     0.25307   0.19702   0.82850   0.00000  Uiso   1.00
B24    B     0.28675   0.23784   0.83533   0.00000  Uiso   1.00
C139   C     0.23371   0.27242   0.90490   0.00000  Uiso   1.00
H93    H     0.20540   0.24648   0.89552   0.00000  Uiso   1.00
C140   C     0.27769   0.27370   0.87894   0.00000  Uiso   1.00
C141   C     0.30581   0.33951   0.93120   0.00000  Uiso   1.00
H94    H     0.33585   0.36283   0.94125   0.00000  Uiso   1.00
C142   C     0.26070   0.34040   0.95634   0.00000  Uiso   1.00
C143   C     0.31370   0.30728   0.89252   0.00000  Uiso   1.00
H95    H     0.34850   0.30824   0.87377   0.00000  Uiso   1.00
C144   C     0.22541   0.30516   0.94306   0.00000  Uiso   1.00
H96    H     0.19089   0.30340   0.96223   0.00000  Uiso   1.00
O25    O     0.99693   0.07850   0.55298   0.00000  Uiso   1.00
B25    B     0.96325   0.08533   0.51216   0.00000  Uiso   1.00
C145   C     0.01629   0.15490   0.47758   0.00000  Uiso   1.00
H97    H     0.04460   0.14552   0.50352   0.00000  Uiso   1.00
C146   C     0.97231   0.12894   0.47630   0.00000  Uiso   1.00
C147   C     0.94419   0.18120   0.41049   0.00000  Uiso   1.00
H98    H     0.91415   0.19125   0.38717   0.00000  Uiso   1.00
C148   C     0.98930   0.20634   0.40960   0.00000  Uiso   1.00
C149   C     0.93630   0.14252   0.44272   0.00000  Uiso   1.00
H99    H     0.90150   0.12377   0.44176   0.00000  Uiso   1.00
C150   C     0.02459   0.19306   0.44484   0.00000  Uiso   1.00
H100   H     0.05911   0.21223   0.44660   0.00000  Uiso   1.00
O26    O     0.49693   0.57850   0.05298   0.00000  Uiso   1.00
B26    B     0.46325   0.58533   0.01216   0.00000  Uiso   1.00
C151   C     0.51629   0.65490   0.97758   0.00000  Uiso   1.00
H101   H     0.54460   0.64552   0.00352   0.00000  Uiso   1.00
C152   C     0.47231   0.62894   0.97630   0.00000  Uiso   1.00
C153   C     0.44419   0.68120   0.91049   0.00000  Uiso   1.00
H102   H     0.41415   0.69125   0.88717   0.00000  Uiso   1.00
C154   C     0.48930   0.70634   0.90960   0.00000  Uiso   1.00
C155   C     0.43630   0.64252   0.94272   0.00000  Uiso   1.00
H103   H     0.40150   0.62377   0.94176   0.00000  Uiso   1.00
C156   C     0.52459   0.69306   0.94484   0.00000  Uiso   1.00
H104   H     0.55911   0.71223   0.94660   0.00000  Uiso   1.00
O27    O     0.50307   0.92150   0.05298   0.00000  Uiso   1.00
B27    B     0.53675   0.91467   0.01216   0.00000  Uiso   1.00
C157   C     0.48371   0.84510   0.97758   0.00000  Uiso   1.00
H105   H     0.45540   0.85448   0.00352   0.00000  Uiso   1.00
C158   C     0.52769   0.87106   0.97630   0.00000  Uiso   1.00
C159   C     0.55581   0.81880   0.91049   0.00000  Uiso   1.00
H106   H     0.58585   0.80875   0.88717   0.00000  Uiso   1.00
C160   C     0.51070   0.79366   0.90960   0.00000  Uiso   1.00
C161   C     0.56370   0.85748   0.94272   0.00000  Uiso   1.00
H107   H     0.59850   0.87623   0.94176   0.00000  Uiso   1.00
C162   C     0.47541   0.80694   0.94484   0.00000  Uiso   1.00
H108   H     0.44089   0.78777   0.94660   0.00000  Uiso   1.00
O28    O     0.00307   0.42150   0.55298   0.00000  Uiso   1.00
B28    B     0.03675   0.41467   0.51216   0.00000  Uiso   1.00
C163   C     0.98371   0.34510   0.47758   0.00000  Uiso   1.00
H109   H     0.95540   0.35448   0.50352   0.00000  Uiso   1.00
C164   C     0.02769   0.37106   0.47630   0.00000  Uiso   1.00
C165   C     0.05581   0.31880   0.41049   0.00000  Uiso   1.00
H110   H     0.08585   0.30875   0.38717   0.00000  Uiso   1.00
C166   C     0.01070   0.29366   0.40960   0.00000  Uiso   1.00
C167   C     0.06370   0.35748   0.44272   0.00000  Uiso   1.00
H111   H     0.09850   0.37623   0.44176   0.00000  Uiso   1.00
C168   C     0.97541   0.30694   0.44484   0.00000  Uiso   1.00
H112   H     0.94089   0.28777   0.44660   0.00000  Uiso   1.00
O29    O     0.49693   0.42150   0.44702   0.00000  Uiso   1.00
B29    B     0.46325   0.41467   0.48784   0.00000  Uiso   1.00
C169   C     0.51629   0.34510   0.52242   0.00000  Uiso   1.00
H113   H     0.54460   0.35448   0.49648   0.00000  Uiso   1.00
C170   C     0.47231   0.37106   0.52370   0.00000  Uiso   1.00
C171   C     0.44419   0.31880   0.58951   0.00000  Uiso   1.00
H114   H     0.41415   0.30875   0.61283   0.00000  Uiso   1.00
C172   C     0.48930   0.29366   0.59040   0.00000  Uiso   1.00
C173   C     0.43630   0.35748   0.55728   0.00000  Uiso   1.00
H115   H     0.40150   0.37623   0.55824   0.00000  Uiso   1.00
C174   C     0.52459   0.30694   0.55516   0.00000  Uiso   1.00
H116   H     0.55911   0.28777   0.55340   0.00000  Uiso   1.00
O30    O     0.99693   0.92150   0.94702   0.00000  Uiso   1.00
B30    B     0.96325   0.91467   0.98784   0.00000  Uiso   1.00
C175   C     0.01629   0.84510   0.02242   0.00000  Uiso   1.00
H117   H     0.04460   0.85448   0.99648   0.00000  Uiso   1.00
C176   C     0.97231   0.87106   0.02370   0.00000  Uiso   1.00
C177   C     0.94419   0.81880   0.08951   0.00000  Uiso   1.00
H118   H     0.91415   0.80875   0.11283   0.00000  Uiso   1.00
C178   C     0.98930   0.79366   0.09040   0.00000  Uiso   1.00
C179   C     0.93630   0.85748   0.05728   0.00000  Uiso   1.00
H119   H     0.90150   0.87623   0.05824   0.00000  Uiso   1.00
C180   C     0.02459   0.80694   0.05516   0.00000  Uiso   1.00
H120   H     0.05911   0.78777   0.05340   0.00000  Uiso   1.00
O31    O     0.00307   0.57850   0.94702   0.00000  Uiso   1.00
B31    B     0.03675   0.58533   0.98784   0.00000  Uiso   1.00
C181   C     0.98371   0.65490   0.02242   0.00000  Uiso   1.00
H121   H     0.95540   0.64552   0.99648   0.00000  Uiso   1.00
C182   C     0.02769   0.62894   0.02370   0.00000  Uiso   1.00
C183   C     0.05581   0.68120   0.08951   0.00000  Uiso   1.00
H122   H     0.08585   0.69125   0.11283   0.00000  Uiso   1.00
C184   C     0.01070   0.70634   0.09040   0.00000  Uiso   1.00
C185   C     0.06370   0.64252   0.05728   0.00000  Uiso   1.00
H123   H     0.09850   0.62377   0.05824   0.00000  Uiso   1.00
C186   C     0.97541   0.69306   0.05516   0.00000  Uiso   1.00
H124   H     0.94089   0.71223   0.05340   0.00000  Uiso   1.00
O32    O     0.50307   0.07850   0.44702   0.00000  Uiso   1.00
B32    B     0.53675   0.08533   0.48784   0.00000  Uiso   1.00
C187   C     0.48371   0.15490   0.52242   0.00000  Uiso   1.00
H125   H     0.45540   0.14552   0.49648   0.00000  Uiso   1.00
C188   C     0.52769   0.12894   0.52370   0.00000  Uiso   1.00
C189   C     0.55581   0.18120   0.58951   0.00000  Uiso   1.00
H126   H     0.58585   0.19125   0.61283   0.00000  Uiso   1.00
C190   C     0.51070   0.20634   0.59040   0.00000  Uiso   1.00
C191   C     0.56370   0.14252   0.55728   0.00000  Uiso   1.00
H127   H     0.59850   0.12377   0.55824   0.00000  Uiso   1.00
C192   C     0.47541   0.19306   0.55516   0.00000  Uiso   1.00
H128   H     0.44089   0.21223   0.55340   0.00000  Uiso   1.00
O33    O     0.07850   0.55298   0.99693   0.00000  Uiso   1.00
B33    B     0.08533   0.51216   0.96325   0.00000  Uiso   1.00
C193   C     0.15490   0.47758   0.01629   0.00000  Uiso   1.00
H129   H     0.14552   0.50352   0.04460   0.00000  Uiso   1.00
C194   C     0.12894   0.47630   0.97231   0.00000  Uiso   1.00
C195   C     0.18120   0.41049   0.94419   0.00000  Uiso   1.00
H130   H     0.19125   0.38717   0.91415   0.00000  Uiso   1.00
C196   C     0.20634   0.40960   0.98930   0.00000  Uiso   1.00
C197   C     0.14252   0.44272   0.93630   0.00000  Uiso   1.00
H131   H     0.12377   0.44176   0.90150   0.00000  Uiso   1.00
C198   C     0.19306   0.44484   0.02459   0.00000  Uiso   1.00
H132   H     0.21223   0.44660   0.05911   0.00000  Uiso   1.00
O34    O     0.57850   0.05298   0.49693   0.00000  Uiso   1.00
B34    B     0.58533   0.01216   0.46325   0.00000  Uiso   1.00
C199   C     0.65490   0.97758   0.51629   0.00000  Uiso   1.00
H133   H     0.64552   0.00352   0.54460   0.00000  Uiso   1.00
C200   C     0.62894   0.97630   0.47231   0.00000  Uiso   1.00
C201   C     0.68120   0.91049   0.44419   0.00000  Uiso   1.00
H134   H     0.69125   0.88717   0.41415   0.00000  Uiso   1.00
C202   C     0.70634   0.90960   0.48930   0.00000  Uiso   1.00
C203   C     0.64252   0.94272   0.43630   0.00000  Uiso   1.00
H135   H     0.62377   0.94176   0.40150   0.00000  Uiso   1.00
C204   C     0.69306   0.94484   0.52459   0.00000  Uiso   1.00
H136   H     0.71223   0.94660   0.55911   0.00000  Uiso   1.00
O35    O     0.92150   0.05298   0.50307   0.00000  Uiso   1.00
B35    B     0.91467   0.01216   0.53675   0.00000  Uiso   1.00
C205   C     0.84510   0.97758   0.48371   0.00000  Uiso   1.00
H137   H     0.85448   0.00352   0.45540   0.00000  Uiso   1.00
C206   C     0.87106   0.97630   0.52769   0.00000  Uiso   1.00
C207   C     0.81880   0.91049   0.55581   0.00000  Uiso   1.00
H138   H     0.80875   0.88717   0.58585   0.00000  Uiso   1.00
C208   C     0.79366   0.90960   0.51070   0.00000  Uiso   1.00
C209   C     0.85748   0.94272   0.56370   0.00000  Uiso   1.00
H139   H     0.87623   0.94176   0.59850   0.00000  Uiso   1.00
C210   C     0.80694   0.94484   0.47541   0.00000  Uiso   1.00
H140   H     0.78777   0.94660   0.44089   0.00000  Uiso   1.00
O36    O     0.42150   0.55298   0.00307   0.00000  Uiso   1.00
B36    B     0.41467   0.51216   0.03675   0.00000  Uiso   1.00
C211   C     0.34510   0.47758   0.98371   0.00000  Uiso   1.00
H141   H     0.35448   0.50352   0.95540   0.00000  Uiso   1.00
C212   C     0.37106   0.47630   0.02769   0.00000  Uiso   1.00
C213   C     0.31880   0.41049   0.05581   0.00000  Uiso   1.00
H142   H     0.30875   0.38717   0.08585   0.00000  Uiso   1.00
C214   C     0.29366   0.40960   0.01070   0.00000  Uiso   1.00
C215   C     0.35748   0.44272   0.06370   0.00000  Uiso   1.00
H143   H     0.37623   0.44176   0.09850   0.00000  Uiso   1.00
C216   C     0.30694   0.44484   0.97541   0.00000  Uiso   1.00
H144   H     0.28777   0.44660   0.94089   0.00000  Uiso   1.00
O37    O     0.42150   0.44702   0.49693   0.00000  Uiso   1.00
B37    B     0.41467   0.48784   0.46325   0.00000  Uiso   1.00
C217   C     0.34510   0.52242   0.51629   0.00000  Uiso   1.00
H145   H     0.35448   0.49648   0.54460   0.00000  Uiso   1.00
C218   C     0.37106   0.52370   0.47231   0.00000  Uiso   1.00
C219   C     0.31880   0.58951   0.44419   0.00000  Uiso   1.00
H146   H     0.30875   0.61283   0.41415   0.00000  Uiso   1.00
C220   C     0.29366   0.59040   0.48930   0.00000  Uiso   1.00
C221   C     0.35748   0.55728   0.43630   0.00000  Uiso   1.00
H147   H     0.37623   0.55824   0.40150   0.00000  Uiso   1.00
C222   C     0.30694   0.55516   0.52459   0.00000  Uiso   1.00
H148   H     0.28777   0.55340   0.55911   0.00000  Uiso   1.00
O38    O     0.92150   0.94702   0.99693   0.00000  Uiso   1.00
B38    B     0.91467   0.98784   0.96325   0.00000  Uiso   1.00
C223   C     0.84510   0.02242   0.01629   0.00000  Uiso   1.00
H149   H     0.85448   0.99648   0.04460   0.00000  Uiso   1.00
C224   C     0.87106   0.02370   0.97231   0.00000  Uiso   1.00
C225   C     0.81880   0.08951   0.94419   0.00000  Uiso   1.00
H150   H     0.80875   0.11283   0.91415   0.00000  Uiso   1.00
C226   C     0.79366   0.09040   0.98930   0.00000  Uiso   1.00
C227   C     0.85748   0.05728   0.93630   0.00000  Uiso   1.00
H151   H     0.87623   0.05824   0.90150   0.00000  Uiso   1.00
C228   C     0.80694   0.05516   0.02459   0.00000  Uiso   1.00
H152   H     0.78777   0.05340   0.05911   0.00000  Uiso   1.00
O39    O     0.57850   0.94702   0.00307   0.00000  Uiso   1.00
B39    B     0.58533   0.98784   0.03675   0.00000  Uiso   1.00
C229   C     0.65490   0.02242   0.98371   0.00000  Uiso   1.00
H153   H     0.64552   0.99648   0.95540   0.00000  Uiso   1.00
C230   C     0.62894   0.02370   0.02769   0.00000  Uiso   1.00
C231   C     0.68120   0.08951   0.05581   0.00000  Uiso   1.00
H154   H     0.69125   0.11283   0.08585   0.00000  Uiso   1.00
C232   C     0.70634   0.09040   0.01070   0.00000  Uiso   1.00
C233   C     0.64252   0.05728   0.06370   0.00000  Uiso   1.00
H155   H     0.62377   0.05824   0.09850   0.00000  Uiso   1.00
C234   C     0.69306   0.05516   0.97541   0.00000  Uiso   1.00
H156   H     0.71223   0.05340   0.94089   0.00000  Uiso   1.00
O40    O     0.07850   0.44702   0.50307   0.00000  Uiso   1.00
B40    B     0.08533   0.48784   0.53675   0.00000  Uiso   1.00
C235   C     0.15490   0.52242   0.48371   0.00000  Uiso   1.00
H157   H     0.14552   0.49648   0.45540   0.00000  Uiso   1.00
C236   C     0.12894   0.52370   0.52769   0.00000  Uiso   1.00
C237   C     0.18120   0.58951   0.55581   0.00000  Uiso   1.00
H158   H     0.19125   0.61283   0.58585   0.00000  Uiso   1.00
C238   C     0.20634   0.59040   0.51070   0.00000  Uiso   1.00
C239   C     0.14252   0.55728   0.56370   0.00000  Uiso   1.00
H159   H     0.12377   0.55824   0.59850   0.00000  Uiso   1.00
C240   C     0.19306   0.55516   0.47541   0.00000  Uiso   1.00
H160   H     0.21223   0.55340   0.44089   0.00000  Uiso   1.00
O41    O     0.55298   0.99693   0.07850   0.00000  Uiso   1.00
B41    B     0.51216   0.96325   0.08533   0.00000  Uiso   1.00
C241   C     0.47758   0.01629   0.15490   0.00000  Uiso   1.00
H161   H     0.50352   0.04460   0.14552   0.00000  Uiso   1.00
C242   C     0.47630   0.97231   0.12894   0.00000  Uiso   1.00
C243   C     0.41049   0.94419   0.18120   0.00000  Uiso   1.00
H162   H     0.38717   0.91415   0.19125   0.00000  Uiso   1.00
C244   C     0.40960   0.98930   0.20634   0.00000  Uiso   1.00
C245   C     0.44272   0.93630   0.14252   0.00000  Uiso   1.00
H163   H     0.44176   0.90150   0.12377   0.00000  Uiso   1.00
C246   C     0.44484   0.02459   0.19306   0.00000  Uiso   1.00
H164   H     0.44660   0.05911   0.21223   0.00000  Uiso   1.00
O42    O     0.05298   0.49693   0.57850   0.00000  Uiso   1.00
B42    B     0.01216   0.46325   0.58533   0.00000  Uiso   1.00
C247   C     0.97758   0.51629   0.65490   0.00000  Uiso   1.00
H165   H     0.00352   0.54460   0.64552   0.00000  Uiso   1.00
C248   C     0.97630   0.47231   0.62894   0.00000  Uiso   1.00
C249   C     0.91049   0.44419   0.68120   0.00000  Uiso   1.00
H166   H     0.88717   0.41415   0.69125   0.00000  Uiso   1.00
C250   C     0.90960   0.48930   0.70634   0.00000  Uiso   1.00
C251   C     0.94272   0.43630   0.64252   0.00000  Uiso   1.00
H167   H     0.94176   0.40150   0.62377   0.00000  Uiso   1.00
C252   C     0.94484   0.52459   0.69306   0.00000  Uiso   1.00
H168   H     0.94660   0.55911   0.71223   0.00000  Uiso   1.00
O43    O     0.05298   0.50307   0.92150   0.00000  Uiso   1.00
B43    B     0.01216   0.53675   0.91467   0.00000  Uiso   1.00
C253   C     0.97758   0.48371   0.84510   0.00000  Uiso   1.00
H169   H     0.00352   0.45540   0.85448   0.00000  Uiso   1.00
C254   C     0.97630   0.52769   0.87106   0.00000  Uiso   1.00
C255   C     0.91049   0.55581   0.81880   0.00000  Uiso   1.00
H170   H     0.88717   0.58585   0.80875   0.00000  Uiso   1.00
C256   C     0.90960   0.51070   0.79366   0.00000  Uiso   1.00
C257   C     0.94272   0.56370   0.85748   0.00000  Uiso   1.00
H171   H     0.94176   0.59850   0.87623   0.00000  Uiso   1.00
C258   C     0.94484   0.47541   0.80694   0.00000  Uiso   1.00
H172   H     0.94660   0.44089   0.78777   0.00000  Uiso   1.00
O44    O     0.55298   0.00307   0.42150   0.00000  Uiso   1.00
B44    B     0.51216   0.03675   0.41467   0.00000  Uiso   1.00
C259   C     0.47758   0.98371   0.34510   0.00000  Uiso   1.00
H173   H     0.50352   0.95540   0.35448   0.00000  Uiso   1.00
C260   C     0.47630   0.02769   0.37106   0.00000  Uiso   1.00
C261   C     0.41049   0.05581   0.31880   0.00000  Uiso   1.00
H174   H     0.38717   0.08585   0.30875   0.00000  Uiso   1.00
C262   C     0.40960   0.01070   0.29366   0.00000  Uiso   1.00
C263   C     0.44272   0.06370   0.35748   0.00000  Uiso   1.00
H175   H     0.44176   0.09850   0.37623   0.00000  Uiso   1.00
C264   C     0.44484   0.97541   0.30694   0.00000  Uiso   1.00
H176   H     0.44660   0.94089   0.28777   0.00000  Uiso   1.00
O45    O     0.44702   0.49693   0.42150   0.00000  Uiso   1.00
B45    B     0.48784   0.46325   0.41467   0.00000  Uiso   1.00
C265   C     0.52242   0.51629   0.34510   0.00000  Uiso   1.00
H177   H     0.49648   0.54460   0.35448   0.00000  Uiso   1.00
C266   C     0.52370   0.47231   0.37106   0.00000  Uiso   1.00
C267   C     0.58951   0.44419   0.31880   0.00000  Uiso   1.00
H178   H     0.61283   0.41415   0.30875   0.00000  Uiso   1.00
C268   C     0.59040   0.48930   0.29366   0.00000  Uiso   1.00
C269   C     0.55728   0.43630   0.35748   0.00000  Uiso   1.00
H179   H     0.55824   0.40150   0.37623   0.00000  Uiso   1.00
C270   C     0.55516   0.52459   0.30694   0.00000  Uiso   1.00
H180   H     0.55340   0.55911   0.28777   0.00000  Uiso   1.00
O46    O     0.94702   0.99693   0.92150   0.00000  Uiso   1.00
B46    B     0.98784   0.96325   0.91467   0.00000  Uiso   1.00
C271   C     0.02242   0.01629   0.84510   0.00000  Uiso   1.00
H181   H     0.99648   0.04460   0.85448   0.00000  Uiso   1.00
C272   C     0.02370   0.97231   0.87106   0.00000  Uiso   1.00
C273   C     0.08951   0.94419   0.81880   0.00000  Uiso   1.00
H182   H     0.11283   0.91415   0.80875   0.00000  Uiso   1.00
C274   C     0.09040   0.98930   0.79366   0.00000  Uiso   1.00
C275   C     0.05728   0.93630   0.85748   0.00000  Uiso   1.00
H183   H     0.05824   0.90150   0.87623   0.00000  Uiso   1.00
C276   C     0.05516   0.02459   0.80694   0.00000  Uiso   1.00
H184   H     0.05340   0.05911   0.78777   0.00000  Uiso   1.00
O47    O     0.94702   0.00307   0.57850   0.00000  Uiso   1.00
B47    B     0.98784   0.03675   0.58533   0.00000  Uiso   1.00
C277   C     0.02242   0.98371   0.65490   0.00000  Uiso   1.00
H185   H     0.99648   0.95540   0.64552   0.00000  Uiso   1.00
C278   C     0.02370   0.02769   0.62894   0.00000  Uiso   1.00
C279   C     0.08951   0.05581   0.68120   0.00000  Uiso   1.00
H186   H     0.11283   0.08585   0.69125   0.00000  Uiso   1.00
C280   C     0.09040   0.01070   0.70634   0.00000  Uiso   1.00
C281   C     0.05728   0.06370   0.64252   0.00000  Uiso   1.00
H187   H     0.05824   0.09850   0.62377   0.00000  Uiso   1.00
C282   C     0.05516   0.97541   0.69306   0.00000  Uiso   1.00
H188   H     0.05340   0.94089   0.71223   0.00000  Uiso   1.00
O48    O     0.44702   0.50307   0.07850   0.00000  Uiso   1.00
B48    B     0.48784   0.53675   0.08533   0.00000  Uiso   1.00
C283   C     0.52242   0.48371   0.15490   0.00000  Uiso   1.00
H189   H     0.49648   0.45540   0.14552   0.00000  Uiso   1.00
C284   C     0.52370   0.52769   0.12894   0.00000  Uiso   1.00
C285   C     0.58951   0.55581   0.18120   0.00000  Uiso   1.00
H190   H     0.61283   0.58585   0.19125   0.00000  Uiso   1.00
C286   C     0.59040   0.51070   0.20634   0.00000  Uiso   1.00
C287   C     0.55728   0.56370   0.14252   0.00000  Uiso   1.00
H191   H     0.55824   0.59850   0.12377   0.00000  Uiso   1.00
C288   C     0.55516   0.47541   0.19306   0.00000  Uiso   1.00
H192   H     0.55340   0.44089   0.21223   0.00000  Uiso   1.00
C289   C     0.00000   0.75000   0.12500   0.00000  Uiso   1.00
C290   C     0.50000   0.25000   0.62500   0.00000  Uiso   1.00
C291   C     0.00000   0.25000   0.37500   0.00000  Uiso   1.00
C292   C     0.50000   0.75000   0.87500   0.00000  Uiso   1.00
C293   C     0.12500   0.00000   0.75000   0.00000  Uiso   1.00
C294   C     0.62500   0.50000   0.25000   0.00000  Uiso   1.00
C295   C     0.37500   0.00000   0.25000   0.00000  Uiso   1.00
C296   C     0.87500   0.50000   0.75000   0.00000  Uiso   1.00
C297   C     0.75000   0.12500   0.00000   0.00000  Uiso   1.00
C298   C     0.25000   0.62500   0.50000   0.00000  Uiso   1.00
C299   C     0.25000   0.37500   0.00000   0.00000  Uiso   1.00
C300   C     0.75000   0.87500   0.50000   0.00000  Uiso   1.00
loop_
_geom_bond_atom_site_label_1
_geom_bond_atom_site_label_2
_geom_bond_distance
_geom_bond_site_symmetry_2
_ccdc_geom_bond_type
O1     B1      1.450   .     S
O1     B23     1.457   .     S
B1     C2      1.554   .     S
B1     O11     1.457   .     S
C1     C2      1.388   .     S
C1     H1      1.074   .     S
C1     C6      1.385   .     S
C2     C5      1.388   .     S
C3     H2      1.069   .     S
C3     C5      1.385   .     S
C3     C4      1.404   .     S
C4     C6      1.403   .     S
C5     H3      1.075   .     S
C6     H4      1.074   .     S
O2     B24     1.457   .     S
O2     B2      1.450   .     S
B2     C8      1.554   .     S
B2     O12     1.457   .     S
C7     H5      1.074   .     S
C7     C8      1.388   .     S
C7     C12     1.385   .     S
C8     C11     1.388   .     S
C9     C11     1.385   .     S
C9     C10     1.404   .     S
C9     H6      1.069   .     S
C10    C12     1.403   .     S
C10    C290    1.542   .     S
C11    H7      1.075   .     S
C12    H8      1.074   .     S
O3     B17     1.457   .     S
O3     B3      1.450   .     S
B3     C14     1.554   .     S
B3     O15     1.457   .     S
C13    H9      1.074   .     S
C13    C14     1.388   .     S
C13    C18     1.385   .     S
C14    C17     1.388   .     S
C15    C16     1.404   .     S
C15    C17     1.385   .     S
C15    H10     1.069   .     S
C16    C18     1.403   .     S
C16    C290    1.542   .     S
C17    H11     1.075   .     S
C18    H12     1.074   .     S
O4     B4      1.450   .     S
O4     B18     1.457   .     S
B4     O16     1.457   .     S
B4     C20     1.554   .     S
C19    C20     1.388   .     S
C19    H13     1.074   .     S
C19    C24     1.385   .     S
C20    C23     1.388   .     S
C21    C23     1.385   .     S
C21    H14     1.069   .     S
C21    C22     1.404   .     S
C22    C24     1.403   .     S
C22    C289    1.542   .     S
C23    H15     1.075   .     S
C24    H16     1.074   .     S
O5     B5      1.450   .     S
O5     B21     1.457   .     S
B5     O13     1.457   .     S
B5     C26     1.554   .     S
C25    C30     1.385   .     S
C25    C26     1.388   .     S
C25    H17     1.074   .     S
C26    C29     1.388   .     S
C27    H18     1.069   .     S
C27    C28     1.404   .     S
C27    C29     1.385   .     S
C28    C291    1.542   .     S
C28    C30     1.403   .     S
C29    H19     1.075   .     S
C30    H20     1.074   .     S
O6     B22     1.457   .     S
O6     B6      1.450   .     S
B6     O14     1.457   .     S
B6     C32     1.554   .     S
C31    C32     1.388   .     S
C31    H21     1.074   .     S
C31    C36     1.385   .     S
C32    C35     1.388   .     S
C33    C35     1.385   .     S
C33    C34     1.404   .     S
C33    H22     1.069   .     S
C34    C36     1.403   .     S
C34    C292    1.542   .     S
C35    H23     1.075   .     S
C36    H24     1.074   .     S
O7     B19     1.457   .     S
O7     B7      1.450   .     S
B7     O9      1.457   .     S
B7     C38     1.554   .     S
C37    C38     1.388   .     S
C37    H25     1.074   .     S
C37    C42     1.385   .     S
C38    C41     1.388   .     S
C39    C41     1.385   .     S
C39    C40     1.404   .     S
C39    H26     1.069   .     S
C40    C42     1.403   .     S
C40    C292    1.542   .     S
C41    H27     1.075   .     S
C42    H28     1.074   .     S
O8     B8      1.450   .     S
O8     B20     1.457   .     S
B8     O10     1.457   .     S
B8     C44     1.554   .     S
C43    C48     1.385   .     S
C43    C44     1.388   .     S
C43    H29     1.074   .     S
C44    C47     1.388   .     S
C45    C46     1.404   .     S
C45    H30     1.069   .     S
C45    C47     1.385   .     S
C46    C48     1.403   .     S
C47    H31     1.075   .     S
C48    H32     1.074   .     S
O9     B9      1.450   .     S
B9     O19     1.457   .     S
B9     C50     1.554   .     S
C49    C50     1.388   .     S
C49    C54     1.385   .     S
C49    H33     1.074   .     S
C50    C53     1.388   .     S
C51    H34     1.069   .     S
C51    C53     1.385   .     S
C51    C52     1.404   .     S
C52    C54     1.403   .     S
C53    H35     1.075   .     S
C54    H36     1.074   .     S
O10    B10     1.450   .     S
B10    C56     1.554   .     S
B10    O20     1.457   .     S
C55    H37     1.074   .     S
C55    C60     1.385   .     S
C55    C56     1.388   .     S
C56    C59     1.388   .     S
C57    C59     1.385   .     S
C57    H38     1.069   .     S
C57    C58     1.404   .     S
C58    C294    1.542   .     S
C58    C60     1.403   .     S
C59    H39     1.075   .     S
C60    H40     1.074   .     S
O11    B11     1.450   .     S
B11    C62     1.554   .     S
B11    O23     1.457   .     S
C61    H41     1.074   .     S
C61    C66     1.385   .     S
C61    C62     1.388   .     S
C62    C65     1.388   .     S
C63    C64     1.404   .     S
C63    C65     1.385   .     S
C63    H42     1.069   .     S
C64    C66     1.403   .     S
C64    C294    1.542   .     S
C65    H43     1.075   .     S
C66    H44     1.074   .     S
O12    B12     1.450   .     S
B12    O24     1.457   .     S
B12    C68     1.554   .     S
C67    C68     1.388   .     S
C67    C72     1.385   .     S
C67    H45     1.074   .     S
C68    C71     1.388   .     S
C69    C71     1.385   .     S
C69    H46     1.069   .     S
C69    C70     1.404   .     S
C70    C72     1.403   .     S
C70    C293    1.542   .     S
C71    H47     1.075   .     S
C72    H48     1.074   .     S
O13    B13     1.450   .     S
B13    C74     1.554   .     S
B13    O21     1.457   .     S
C73    H49     1.074   .     S
C73    C78     1.385   .     S
C73    C74     1.388   .     S
C74    C77     1.388   .     S
C75    C77     1.385   .     S
C75    H50     1.069   .     S
C75    C76     1.404   .     S
C76    C295    1.542   .     S
C76    C78     1.403   .     S
C77    H51     1.075   .     S
C78    H52     1.074   .     S
O14    B14     1.450   .     S
B14    O22     1.457   .     S
B14    C80     1.554   .     S
C79    C80     1.388   .     S
C79    C84     1.385   .     S
C79    H53     1.074   .     S
C80    C83     1.388   .     S
C81    H54     1.069   .     S
C81    C83     1.385   .     S
C81    C82     1.404   .     S
C82    C84     1.403   .     S
C82    C296    1.542   .     S
C83    H55     1.075   .     S
C84    H56     1.074   .     S
O15    B15     1.450   .     S
B15    O17     1.457   .     S
B15    C86     1.554   .     S
C85    C90     1.385   .     S
C85    C86     1.388   .     S
C85    H57     1.074   .     S
C86    C89     1.388   .     S
C87    C89     1.385   .     S
C87    H58     1.069   .     S
C87    C88     1.404   .     S
C88    C296    1.542   .     S
C88    C90     1.403   .     S
C89    H59     1.075   .     S
C90    H60     1.074   .     S
O16    B16     1.450   .     S
B16    C92     1.554   .     S
B16    O18     1.457   .     S
C91    H61     1.074   .     S
C91    C96     1.385   .     S
C91    C92     1.388   .     S
C92    C95     1.388   .     S
C93    C94     1.404   .     S
C93    C95     1.385   .     S
C93    H62     1.069   .     S
C94    C96     1.403   .     S
C95    H63     1.075   .     S
C96    H64     1.074   .     S
O17    B17     1.450   .     S
B17    C98     1.554   .     S
C97    C98     1.388   .     S
C97    H65     1.074   .     S
C97    C102    1.385   .     S
C98    C101    1.388   .     S
C99    H66     1.069   .     S
C99    C100    1.404   .     S
C99    C101    1.385   .     S
C100   C102    1.403   .     S
C101   H67     1.075   .     S
C102   H68     1.074   .     S
O18    B18     1.450   .     S
B18    C104    1.554   .     S
C103   H69     1.074   .     S
C103   C108    1.385   .     S
C103   C104    1.388   .     S
C104   C107    1.388   .     S
C105   C107    1.385   .     S
C105   H70     1.069   .     S
C105   C106    1.404   .     S
C106   C298    1.542   .     S
C106   C108    1.403   .     S
C107   H71     1.075   .     S
C108   H72     1.074   .     S
O19    B19     1.450   .     S
B19    C110    1.554   .     S
C109   H73     1.074   .     S
C109   C110    1.388   .     S
C109   C114    1.385   .     S
C110   C113    1.388   .     S
C111   C112    1.404   .     S
C111   H74     1.069   .     S
C111   C113    1.385   .     S
C112   C114    1.403   .     S
C112   C298    1.542   .     S
C113   H75     1.075   .     S
C114   H76     1.074   .     S
O20    B20     1.450   .     S
B20    C116    1.554   .     S
C115   C116    1.388   .     S
C115   H77     1.074   .     S
C115   C120    1.385   .     S
C116   C119    1.388   .     S
C117   C119    1.385   .     S
C117   H78     1.069   .     S
C117   C118    1.404   .     S
C118   C120    1.403   .     S
C118   C297    1.542   .     S
C119   H79     1.075   .     S
C120   H80     1.074   .     S
O21    B21     1.450   .     S
B21    C122    1.554   .     S
C121   C122    1.388   .     S
C121   H81     1.074   .     S
C121   C126    1.385   .     S
C122   C125    1.388   .     S
C123   C125    1.385   .     S
C123   H82     1.069   .     S
C123   C124    1.404   .     S
C124   C299    1.542   .     S
C124   C126    1.403   .     S
C125   H83     1.075   .     S
C126   H84     1.074   .     S
O22    B22     1.450   .     S
B22    C128    1.554   .     S
C127   C128    1.388   .     S
C127   H85     1.074   .     S
C127   C132    1.385   .     S
C128   C131    1.388   .     S
C129   C130    1.404   .     S
C129   H86     1.069   .     S
C129   C131    1.385   .     S
C130   C132    1.403   .     S
C130   C300    1.542   .     S
C131   H87     1.075   .     S
C132   H88     1.074   .     S
O23    B23     1.450   .     S
B23    C134    1.554   .     S
C133   H89     1.074   .     S
C133   C138    1.385   .     S
C133   C134    1.388   .     S
C134   C137    1.388   .     S
C135   C137    1.385   .     S
C135   H90     1.069   .     S
C135   C136    1.404   .     S
C136   C300    1.542   .     S
C136   C138    1.403   .     S
C137   H91     1.075   .     S
C138   H92     1.074   .     S
O24    B24     1.450   .     S
B24    C140    1.554   .     S
C139   C140    1.388   .     S
C139   H93     1.074   .     S
C139   C144    1.385   .     S
C140   C143    1.388   .     S
C141   C142    1.404   .     S
C141   H94     1.069   .     S
C141   C143    1.385   .     S
C142   C144    1.403   .     S
C143   H95     1.075   .     S
C144   H96     1.074   .     S
O25    B47     1.457   .     S
O25    B25     1.450   .     S
B25    C146    1.554   .     S
B25    O35     1.457   .     S
C145   H97     1.074   .     S
C145   C150    1.385   .     S
C146   C149    1.388   .     S
C147   C149    1.385   .     S
C147   C148    1.404   .     S
C147   H98     1.069   .     S
C149   H99     1.075   .     S
C150   H100    1.074   .     S
O26    B26     1.450   .     S
O26    B48     1.457   .     S
B26    O36     1.457   .     S
C151   C156    1.385   .     S
C151   C152    1.388   .     S
C152   C155    1.388   .     S
C153   H102    1.069   .     S
C153   C154    1.404   .     S
C153   C155    1.385   .     S
C154   C292    1.542   .     S
C154   C156    1.403   .     S
C155   H103    1.075   .     S
C156   H104    1.074   .     S
O27    B27     1.450   .     S
O27    B41     1.457   .     S
B27    O39     1.457   .     S
C157   C158    1.388   .     S
C157   C162    1.385   .     S
C158   C161    1.388   .     S
C159   H106    1.069   .     S
C159   C160    1.404   .     S
C159   C161    1.385   .     S
C160   C292    1.542   .     S
C160   C162    1.403   .     S
C161   H107    1.075   .     S
C162   H108    1.074   .     S
O28    B42     1.457   .     S
O28    B28     1.450   .     S
B28    O40     1.457   .     S
B28    C164    1.554   .     S
C163   H109    1.074   .     S
C163   C168    1.385   .     S
C164   C167    1.388   .     S
C165   C166    1.404   .     S
C165   C167    1.385   .     S
C165   H110    1.069   .     S
C166   C291    1.542   .     S
C167   H111    1.075   .     S
C168   H112    1.074   .     S
O29    B45     1.457   .     S
O29    B29     1.450   .     S
B29    O37     1.457   .     S
B29    C170    1.554   .     S
C169   C170    1.388   .     S
C169   C174    1.385   .     S
C169   H113    1.074   .     S
C170   C173    1.388   .     S
C171   H114    1.069   .     S
C171   C172    1.404   .     S
C171   C173    1.385   .     S
C172   C290    1.542   .     S
C172   C174    1.403   .     S
C173   H115    1.075   .     S
C174   H116    1.074   .     S
O30    B46     1.457   .     S
O30    B30     1.450   .     S
B30    O38     1.457   .     S
C175   C180    1.385   .     S
C176   C179    1.388   .     S
C177   H118    1.069   .     S
C177   C178    1.404   .     S
C177   C179    1.385   .     S
C179   H119    1.075   .     S
C180   H120    1.074   .     S
O31    B43     1.457   .     S
O31    B31     1.450   .     S
B31    O33     1.457   .     S
C181   C186    1.385   .     S
C182   C185    1.388   .     S
C183   C184    1.404   .     S
C183   H122    1.069   .     S
C183   C185    1.385   .     S
C184   C289    1.542   .     S
C185   H123    1.075   .     S
C186   H124    1.074   .     S
O32    B44     1.457   .     S
O32    B32     1.450   .     S
B32    O34     1.457   .     S
B32    C188    1.554   .     S
C187   C192    1.385   .     S
C187   C188    1.388   .     S
C187   H125    1.074   .     S
C188   C191    1.388   .     S
C189   H126    1.069   .     S
C189   C190    1.404   .     S
C189   C191    1.385   .     S
C190   C290    1.542   .     S
C190   C192    1.403   .     S
C191   H127    1.075   .     S
C192   H128    1.074   .     S
O33    B33     1.450   .     S
B33    C194    1.554   .     S
B33    O43     1.457   .     S
C193   H129    1.074   .     S
C193   C198    1.385   .     S
C194   C197    1.388   .     S
C195   C197    1.385   .     S
C195   H130    1.069   .     S
C195   C196    1.404   .     S
C197   H131    1.075   .     S
C198   H132    1.074   .     S
O34    B34     1.450   .     S
B34    O44     1.457   .     S
C199   C200    1.388   .     S
C199   C204    1.385   .     S
C200   C203    1.388   .     S
C201   H134    1.069   .     S
C201   C203    1.385   .     S
C201   C202    1.404   .     S
C202   C300    1.542   .     S
C202   C204    1.403   .     S
C203   H135    1.075   .     S
C204   H136    1.074   .     S
O35    B35     1.450   .     S
B35    O47     1.457   .     S
C205   C210    1.385   .     S
C205   C206    1.388   .     S
C206   C209    1.388   .     S
C207   H138    1.069   .     S
C207   C209    1.385   .     S
C207   C208    1.404   .     S
C208   C300    1.542   .     S
C208   C210    1.403   .     S
C209   H139    1.075   .     S
C210   H140    1.074   .     S
O36    B36     1.450   .     S
B36    C212    1.554   .     S
B36    O48     1.457   .     S
C211   H141    1.074   .     S
C211   C216    1.385   .     S
C212   C215    1.388   .     S
C213   C214    1.404   .     S
C213   C215    1.385   .     S
C213   H142    1.069   .     S
C214   C299    1.542   .     S
C215   H143    1.075   .     S
C216   H144    1.074   .     S
O37    B37     1.450   .     S
B37    C218    1.554   .     S
B37    O45     1.457   .     S
C217   C218    1.388   .     S
C217   C222    1.385   .     S
C217   H145    1.074   .     S
C218   C221    1.388   .     S
C219   H146    1.069   .     S
C219   C221    1.385   .     S
C219   C220    1.404   .     S
C220   C298    1.542   .     S
C220   C222    1.403   .     S
C221   H147    1.075   .     S
C222   H148    1.074   .     S
O38    B38     1.450   .     S
B38    O46     1.457   .     S
C223   C228    1.385   .     S
C224   C227    1.388   .     S
C225   H150    1.069   .     S
C225   C227    1.385   .     S
C225   C226    1.404   .     S
C227   H151    1.075   .     S
C228   H152    1.074   .     S
O39    B39     1.450   .     S
B39    O41     1.457   .     S
C229   C234    1.385   .     S
C230   C233    1.388   .     S
C231   C232    1.404   .     S
C231   C233    1.385   .     S
C231   H154    1.069   .     S
C232   C297    1.542   .     S
C233   H155    1.075   .     S
C234   H156    1.074   .     S
O40    B40     1.450   .     S
B40    O42     1.457   .     S
B40    C236    1.554   .     S
C235   C240    1.385   .     S
C235   H157    1.074   .     S
C235   C236    1.388   .     S
C236   C239    1.388   .     S
C237   H158    1.069   .     S
C237   C239    1.385   .     S
C237   C238    1.404   .     S
C238   C298    1.542   .     S
C238   C240    1.403   .     S
C239   H159    1.075   .     S
C240   H160    1.074   .     S
O41    B41     1.450   .     S
B41    C242    1.554   .     S
C241   H161    1.074   .     S
C241   C246    1.385   .     S
C242   C245    1.388   .     S
C243   C245    1.385   .     S
C243   H162    1.069   .     S
C243   C244    1.404   .     S
C245   H163    1.075   .     S
C246   H164    1.074   .     S
O42    B42     1.450   .     S
C247   C252    1.385   .     S
C247   C248    1.388   .     S
C248   C251    1.388   .     S
C249   H166    1.069   .     S
C249   C250    1.404   .     S
C249   C251    1.385   .     S
C250   C252    1.403   .     S
C250   C296    1.542   .     S
C251   H167    1.075   .     S
C252   H168    1.074   .     S
O43    B43     1.450   .     S
C253   C258    1.385   .     S
C253   C254    1.388   .     S
C254   C257    1.388   .     S
C255   H170    1.069   .     S
C255   C256    1.404   .     S
C255   C257    1.385   .     S
C256   C258    1.403   .     S
C256   C296    1.542   .     S
C257   H171    1.075   .     S
C258   H172    1.074   .     S
O44    B44     1.450   .     S
B44    C260    1.554   .     S
C259   H173    1.074   .     S
C259   C264    1.385   .     S
C260   C263    1.388   .     S
C261   C262    1.404   .     S
C261   H174    1.069   .     S
C261   C263    1.385   .     S
C262   C295    1.542   .     S
C263   H175    1.075   .     S
C264   H176    1.074   .     S
O45    B45     1.450   .     S
B45    C266    1.554   .     S
C265   C266    1.388   .     S
C265   H177    1.074   .     S
C265   C270    1.385   .     S
C266   C269    1.388   .     S
C267   H178    1.069   .     S
C267   C268    1.404   .     S
C267   C269    1.385   .     S
C268   C270    1.403   .     S
C268   C294    1.542   .     S
C269   H179    1.075   .     S
C270   H180    1.074   .     S
O46    B46     1.450   .     S
C271   C276    1.385   .     S
C272   C275    1.388   .     S
C273   H182    1.069   .     S
C273   C274    1.404   .     S
C273   C275    1.385   .     S
C275   H183    1.075   .     S
C276   H184    1.074   .     S
O47    B47     1.450   .     S
C277   C282    1.385   .     S
C278   C281    1.388   .     S
C279   C280    1.404   .     S
C279   H186    1.069   .     S
C279   C281    1.385   .     S
C280   C293    1.542   .     S
C281   H187    1.075   .     S
C282   H188    1.074   .     S
O48    B48     1.450   .     S
B48    C284    1.554   .     S
C283   C288    1.385   .     S
C283   H189    1.074   .     S
C283   C284    1.388   .     S
C284   C287    1.388   .     S
C285   H190    1.069   .     S
C285   C287    1.385   .     S
C285   C286    1.404   .     S
C286   C294    1.542   .     S
C286   C288    1.403   .     S
C287   H191    1.075   .     S
C288   H192    1.074   .     S
