data_COF-103
_audit_creation_date              2016-12-13
_audit_creation_method            'Materials Studio'
_symmetry_space_group_name_H-M    'P1'
_symmetry_Int_Tables_number       1
_symmetry_cell_setting            triclinic
loop_
_symmetry_equiv_pos_as_xyz
  x,y,z
_cell_length_a                    28.2477
_cell_length_b                    28.2477
_cell_length_c                    28.2477
_cell_angle_alpha                 90.0000
_cell_angle_beta                  90.0000
_cell_angle_gamma                 90.0000
loop_
_atom_site_label
_atom_site_type_symbol
_atom_site_fract_x
_atom_site_fract_y
_atom_site_fract_z
_atom_site_U_iso_or_equiv
_atom_site_adp_type
_atom_site_occupancy
C1     C     0.34070   0.07966   0.20001   0.00000  Uiso   1.00
C2     C     0.33591   0.05139   0.24007   0.00000  Uiso   1.00
C3     C     0.30021   0.06125   0.27253   0.00000  Uiso   1.00
C4     C     0.26989   0.09921   0.26533   0.00000  Uiso   1.00
C5     C     0.27496   0.12788   0.22549   0.00000  Uiso   1.00
C6     C     0.31062   0.11783   0.19290   0.00000  Uiso   1.00
H1     H     0.36748   0.07242   0.17407   0.00000  Uiso   1.00
H2     H     0.29575   0.03949   0.30345   0.00000  Uiso   1.00
H3     H     0.24263   0.10607   0.29100   0.00000  Uiso   1.00
H4     H     0.31517   0.13920   0.16171   0.00000  Uiso   1.00
B1     B     0.24102   0.17052   0.21731   0.00000  Uiso   1.00
O1     O     0.20173   0.17738   0.24979   0.00000  Uiso   1.00
C7     C     0.84070   0.57966   0.70001   0.00000  Uiso   1.00
C8     C     0.83591   0.55139   0.74007   0.00000  Uiso   1.00
C9     C     0.80021   0.56125   0.77253   0.00000  Uiso   1.00
C10    C     0.76989   0.59921   0.76533   0.00000  Uiso   1.00
C11    C     0.77496   0.62788   0.72549   0.00000  Uiso   1.00
C12    C     0.81062   0.61783   0.69290   0.00000  Uiso   1.00
H5     H     0.86748   0.57242   0.67407   0.00000  Uiso   1.00
H6     H     0.79575   0.53949   0.80345   0.00000  Uiso   1.00
H7     H     0.74263   0.60607   0.79100   0.00000  Uiso   1.00
H8     H     0.81517   0.63920   0.66171   0.00000  Uiso   1.00
B2     B     0.74102   0.67052   0.71731   0.00000  Uiso   1.00
O2     O     0.70173   0.67738   0.74979   0.00000  Uiso   1.00
C13    C     0.15930   0.92034   0.70001   0.00000  Uiso   1.00
C14    C     0.16409   0.94861   0.74007   0.00000  Uiso   1.00
C15    C     0.19979   0.93875   0.77253   0.00000  Uiso   1.00
C16    C     0.23011   0.90079   0.76533   0.00000  Uiso   1.00
C17    C     0.22504   0.87212   0.72549   0.00000  Uiso   1.00
C18    C     0.18938   0.88217   0.69290   0.00000  Uiso   1.00
H9     H     0.13252   0.92758   0.67407   0.00000  Uiso   1.00
H10    H     0.20425   0.96051   0.80345   0.00000  Uiso   1.00
H11    H     0.25737   0.89393   0.79100   0.00000  Uiso   1.00
H12    H     0.18483   0.86080   0.66171   0.00000  Uiso   1.00
B3     B     0.25898   0.82948   0.71731   0.00000  Uiso   1.00
O3     O     0.29827   0.82262   0.74979   0.00000  Uiso   1.00
C19    C     0.65930   0.42034   0.20001   0.00000  Uiso   1.00
C20    C     0.66409   0.44861   0.24007   0.00000  Uiso   1.00
C21    C     0.69979   0.43875   0.27253   0.00000  Uiso   1.00
C22    C     0.73011   0.40079   0.26533   0.00000  Uiso   1.00
C23    C     0.72504   0.37212   0.22549   0.00000  Uiso   1.00
C24    C     0.68938   0.38217   0.19290   0.00000  Uiso   1.00
H13    H     0.63252   0.42758   0.17407   0.00000  Uiso   1.00
H14    H     0.70425   0.46051   0.30345   0.00000  Uiso   1.00
H15    H     0.75737   0.39393   0.29100   0.00000  Uiso   1.00
H16    H     0.68483   0.36080   0.16171   0.00000  Uiso   1.00
B4     B     0.75898   0.32948   0.21731   0.00000  Uiso   1.00
O4     O     0.79827   0.32262   0.24979   0.00000  Uiso   1.00
C25    C     0.65930   0.57966   0.29999   0.00000  Uiso   1.00
C26    C     0.66409   0.55139   0.25993   0.00000  Uiso   1.00
C27    C     0.69979   0.56125   0.22747   0.00000  Uiso   1.00
C28    C     0.73011   0.59921   0.23467   0.00000  Uiso   1.00
C29    C     0.72504   0.62788   0.27451   0.00000  Uiso   1.00
C30    C     0.68938   0.61783   0.30710   0.00000  Uiso   1.00
H17    H     0.63252   0.57242   0.32593   0.00000  Uiso   1.00
H18    H     0.70425   0.53949   0.19655   0.00000  Uiso   1.00
H19    H     0.75737   0.60607   0.20900   0.00000  Uiso   1.00
H20    H     0.68483   0.63920   0.33829   0.00000  Uiso   1.00
B5     B     0.75898   0.67052   0.28269   0.00000  Uiso   1.00
O5     O     0.79827   0.67738   0.25021   0.00000  Uiso   1.00
C31    C     0.15930   0.07966   0.79999   0.00000  Uiso   1.00
C32    C     0.16409   0.05139   0.75993   0.00000  Uiso   1.00
C33    C     0.19979   0.06125   0.72747   0.00000  Uiso   1.00
C34    C     0.23011   0.09921   0.73467   0.00000  Uiso   1.00
C35    C     0.22504   0.12788   0.77451   0.00000  Uiso   1.00
C36    C     0.18938   0.11783   0.80710   0.00000  Uiso   1.00
H21    H     0.13252   0.07242   0.82593   0.00000  Uiso   1.00
H22    H     0.20425   0.03949   0.69655   0.00000  Uiso   1.00
H23    H     0.25737   0.10607   0.70900   0.00000  Uiso   1.00
H24    H     0.18483   0.13920   0.83829   0.00000  Uiso   1.00
B6     B     0.25898   0.17052   0.78269   0.00000  Uiso   1.00
O6     O     0.29827   0.17738   0.75021   0.00000  Uiso   1.00
C37    C     0.84070   0.42034   0.79999   0.00000  Uiso   1.00
C38    C     0.83591   0.44861   0.75993   0.00000  Uiso   1.00
C39    C     0.80021   0.43875   0.72747   0.00000  Uiso   1.00
C40    C     0.76989   0.40079   0.73467   0.00000  Uiso   1.00
C41    C     0.77496   0.37212   0.77451   0.00000  Uiso   1.00
C42    C     0.81062   0.38217   0.80710   0.00000  Uiso   1.00
H25    H     0.86748   0.42758   0.82593   0.00000  Uiso   1.00
H26    H     0.79575   0.46051   0.69655   0.00000  Uiso   1.00
H27    H     0.74263   0.39393   0.70900   0.00000  Uiso   1.00
H28    H     0.81517   0.36080   0.83829   0.00000  Uiso   1.00
B7     B     0.74102   0.32948   0.78269   0.00000  Uiso   1.00
O7     O     0.70173   0.32262   0.75021   0.00000  Uiso   1.00
C43    C     0.34070   0.92034   0.29999   0.00000  Uiso   1.00
C44    C     0.33591   0.94861   0.25993   0.00000  Uiso   1.00
C45    C     0.30021   0.93875   0.22747   0.00000  Uiso   1.00
C46    C     0.26989   0.90079   0.23467   0.00000  Uiso   1.00
C47    C     0.27496   0.87212   0.27451   0.00000  Uiso   1.00
C48    C     0.31062   0.88217   0.30710   0.00000  Uiso   1.00
H29    H     0.36748   0.92758   0.32593   0.00000  Uiso   1.00
H30    H     0.29575   0.96051   0.19655   0.00000  Uiso   1.00
H31    H     0.24263   0.89393   0.20900   0.00000  Uiso   1.00
H32    H     0.31517   0.86080   0.33829   0.00000  Uiso   1.00
B8     B     0.24102   0.82948   0.28269   0.00000  Uiso   1.00
O8     O     0.20173   0.82262   0.25021   0.00000  Uiso   1.00
C49    C     0.20001   0.34070   0.07966   0.00000  Uiso   1.00
C50    C     0.24007   0.33591   0.05139   0.00000  Uiso   1.00
C51    C     0.27253   0.30021   0.06125   0.00000  Uiso   1.00
C52    C     0.26533   0.26989   0.09921   0.00000  Uiso   1.00
C53    C     0.22549   0.27496   0.12788   0.00000  Uiso   1.00
C54    C     0.19290   0.31062   0.11783   0.00000  Uiso   1.00
H33    H     0.17407   0.36748   0.07242   0.00000  Uiso   1.00
H34    H     0.30345   0.29575   0.03949   0.00000  Uiso   1.00
H35    H     0.29100   0.24263   0.10607   0.00000  Uiso   1.00
H36    H     0.16171   0.31517   0.13920   0.00000  Uiso   1.00
B9     B     0.21731   0.24102   0.17052   0.00000  Uiso   1.00
O9     O     0.24979   0.20173   0.17738   0.00000  Uiso   1.00
C55    C     0.70001   0.84070   0.57966   0.00000  Uiso   1.00
C56    C     0.74007   0.83591   0.55139   0.00000  Uiso   1.00
C57    C     0.77253   0.80021   0.56125   0.00000  Uiso   1.00
C58    C     0.76533   0.76989   0.59921   0.00000  Uiso   1.00
C59    C     0.72549   0.77496   0.62788   0.00000  Uiso   1.00
C60    C     0.69290   0.81062   0.61783   0.00000  Uiso   1.00
H37    H     0.67407   0.86748   0.57242   0.00000  Uiso   1.00
H38    H     0.80345   0.79575   0.53949   0.00000  Uiso   1.00
H39    H     0.79100   0.74263   0.60607   0.00000  Uiso   1.00
H40    H     0.66171   0.81517   0.63920   0.00000  Uiso   1.00
B10    B     0.71731   0.74102   0.67052   0.00000  Uiso   1.00
O10    O     0.74979   0.70173   0.67738   0.00000  Uiso   1.00
C61    C     0.70001   0.15930   0.92034   0.00000  Uiso   1.00
C62    C     0.74007   0.16409   0.94861   0.00000  Uiso   1.00
C63    C     0.77253   0.19979   0.93875   0.00000  Uiso   1.00
C64    C     0.76533   0.23011   0.90079   0.00000  Uiso   1.00
C65    C     0.72549   0.22504   0.87212   0.00000  Uiso   1.00
C66    C     0.69290   0.18938   0.88217   0.00000  Uiso   1.00
H41    H     0.67407   0.13252   0.92758   0.00000  Uiso   1.00
H42    H     0.80345   0.20425   0.96051   0.00000  Uiso   1.00
H43    H     0.79100   0.25737   0.89393   0.00000  Uiso   1.00
H44    H     0.66171   0.18483   0.86080   0.00000  Uiso   1.00
B11    B     0.71731   0.25898   0.82948   0.00000  Uiso   1.00
O11    O     0.74979   0.29827   0.82262   0.00000  Uiso   1.00
C67    C     0.20001   0.65930   0.42034   0.00000  Uiso   1.00
C68    C     0.24007   0.66409   0.44861   0.00000  Uiso   1.00
C69    C     0.27253   0.69979   0.43875   0.00000  Uiso   1.00
C70    C     0.26533   0.73011   0.40079   0.00000  Uiso   1.00
C71    C     0.22549   0.72504   0.37212   0.00000  Uiso   1.00
C72    C     0.19290   0.68938   0.38217   0.00000  Uiso   1.00
H45    H     0.17407   0.63252   0.42758   0.00000  Uiso   1.00
H46    H     0.30345   0.70425   0.46051   0.00000  Uiso   1.00
H47    H     0.29100   0.75737   0.39393   0.00000  Uiso   1.00
H48    H     0.16171   0.68483   0.36080   0.00000  Uiso   1.00
B12    B     0.21731   0.75898   0.32948   0.00000  Uiso   1.00
O12    O     0.24979   0.79827   0.32262   0.00000  Uiso   1.00
C73    C     0.29999   0.65930   0.57966   0.00000  Uiso   1.00
C74    C     0.25993   0.66409   0.55139   0.00000  Uiso   1.00
C75    C     0.22747   0.69979   0.56125   0.00000  Uiso   1.00
C76    C     0.23467   0.73011   0.59921   0.00000  Uiso   1.00
C77    C     0.27451   0.72504   0.62788   0.00000  Uiso   1.00
C78    C     0.30710   0.68938   0.61783   0.00000  Uiso   1.00
H49    H     0.32593   0.63252   0.57242   0.00000  Uiso   1.00
H50    H     0.19655   0.70425   0.53949   0.00000  Uiso   1.00
H51    H     0.20900   0.75737   0.60607   0.00000  Uiso   1.00
H52    H     0.33829   0.68483   0.63920   0.00000  Uiso   1.00
B13    B     0.28269   0.75898   0.67052   0.00000  Uiso   1.00
O13    O     0.25021   0.79827   0.67738   0.00000  Uiso   1.00
C79    C     0.79999   0.15930   0.07966   0.00000  Uiso   1.00
C80    C     0.75993   0.16409   0.05139   0.00000  Uiso   1.00
C81    C     0.72747   0.19979   0.06125   0.00000  Uiso   1.00
C82    C     0.73467   0.23011   0.09921   0.00000  Uiso   1.00
C83    C     0.77451   0.22504   0.12788   0.00000  Uiso   1.00
C84    C     0.80710   0.18938   0.11783   0.00000  Uiso   1.00
H53    H     0.82593   0.13252   0.07242   0.00000  Uiso   1.00
H54    H     0.69655   0.20425   0.03949   0.00000  Uiso   1.00
H55    H     0.70900   0.25737   0.10607   0.00000  Uiso   1.00
H56    H     0.83829   0.18483   0.13920   0.00000  Uiso   1.00
B14    B     0.78269   0.25898   0.17052   0.00000  Uiso   1.00
O14    O     0.75021   0.29827   0.17738   0.00000  Uiso   1.00
C85    C     0.79999   0.84070   0.42034   0.00000  Uiso   1.00
C86    C     0.75993   0.83591   0.44861   0.00000  Uiso   1.00
C87    C     0.72747   0.80021   0.43875   0.00000  Uiso   1.00
C88    C     0.73467   0.76989   0.40079   0.00000  Uiso   1.00
C89    C     0.77451   0.77496   0.37212   0.00000  Uiso   1.00
C90    C     0.80710   0.81062   0.38217   0.00000  Uiso   1.00
H57    H     0.82593   0.86748   0.42758   0.00000  Uiso   1.00
H58    H     0.69655   0.79575   0.46051   0.00000  Uiso   1.00
H59    H     0.70900   0.74263   0.39393   0.00000  Uiso   1.00
H60    H     0.83829   0.81517   0.36080   0.00000  Uiso   1.00
B15    B     0.78269   0.74102   0.32948   0.00000  Uiso   1.00
O15    O     0.75021   0.70173   0.32262   0.00000  Uiso   1.00
C91    C     0.29999   0.34070   0.92034   0.00000  Uiso   1.00
C92    C     0.25993   0.33591   0.94861   0.00000  Uiso   1.00
C93    C     0.22747   0.30021   0.93875   0.00000  Uiso   1.00
C94    C     0.23467   0.26989   0.90079   0.00000  Uiso   1.00
C95    C     0.27451   0.27496   0.87212   0.00000  Uiso   1.00
C96    C     0.30710   0.31062   0.88217   0.00000  Uiso   1.00
H61    H     0.32593   0.36748   0.92758   0.00000  Uiso   1.00
H62    H     0.19655   0.29575   0.96051   0.00000  Uiso   1.00
H63    H     0.20900   0.24263   0.89393   0.00000  Uiso   1.00
H64    H     0.33829   0.31517   0.86080   0.00000  Uiso   1.00
B16    B     0.28269   0.24102   0.82948   0.00000  Uiso   1.00
O16    O     0.25021   0.20173   0.82262   0.00000  Uiso   1.00
C97    C     0.07966   0.20001   0.34070   0.00000  Uiso   1.00
C98    C     0.05139   0.24007   0.33591   0.00000  Uiso   1.00
C99    C     0.06125   0.27253   0.30021   0.00000  Uiso   1.00
C100   C     0.09921   0.26533   0.26989   0.00000  Uiso   1.00
C101   C     0.12788   0.22549   0.27496   0.00000  Uiso   1.00
C102   C     0.11783   0.19290   0.31062   0.00000  Uiso   1.00
H65    H     0.07242   0.17407   0.36748   0.00000  Uiso   1.00
H66    H     0.03949   0.30345   0.29575   0.00000  Uiso   1.00
H67    H     0.10607   0.29100   0.24263   0.00000  Uiso   1.00
H68    H     0.13920   0.16171   0.31517   0.00000  Uiso   1.00
B17    B     0.17052   0.21731   0.24102   0.00000  Uiso   1.00
O17    O     0.17738   0.24979   0.20173   0.00000  Uiso   1.00
C103   C     0.57966   0.70001   0.84070   0.00000  Uiso   1.00
C104   C     0.55139   0.74007   0.83591   0.00000  Uiso   1.00
C105   C     0.56125   0.77253   0.80021   0.00000  Uiso   1.00
C106   C     0.59921   0.76533   0.76989   0.00000  Uiso   1.00
C107   C     0.62788   0.72549   0.77496   0.00000  Uiso   1.00
C108   C     0.61783   0.69290   0.81062   0.00000  Uiso   1.00
H69    H     0.57242   0.67407   0.86748   0.00000  Uiso   1.00
H70    H     0.53949   0.80345   0.79575   0.00000  Uiso   1.00
H71    H     0.60607   0.79100   0.74263   0.00000  Uiso   1.00
H72    H     0.63920   0.66171   0.81517   0.00000  Uiso   1.00
B18    B     0.67052   0.71731   0.74102   0.00000  Uiso   1.00
O18    O     0.67738   0.74979   0.70173   0.00000  Uiso   1.00
C109   C     0.92034   0.70001   0.15930   0.00000  Uiso   1.00
C110   C     0.94861   0.74007   0.16409   0.00000  Uiso   1.00
C111   C     0.93875   0.77253   0.19979   0.00000  Uiso   1.00
C112   C     0.90079   0.76533   0.23011   0.00000  Uiso   1.00
C113   C     0.87212   0.72549   0.22504   0.00000  Uiso   1.00
C114   C     0.88217   0.69290   0.18938   0.00000  Uiso   1.00
H73    H     0.92758   0.67407   0.13252   0.00000  Uiso   1.00
H74    H     0.96051   0.80345   0.20425   0.00000  Uiso   1.00
H75    H     0.89393   0.79100   0.25737   0.00000  Uiso   1.00
H76    H     0.86080   0.66171   0.18483   0.00000  Uiso   1.00
B19    B     0.82948   0.71731   0.25898   0.00000  Uiso   1.00
O19    O     0.82262   0.74979   0.29827   0.00000  Uiso   1.00
C115   C     0.42034   0.20001   0.65930   0.00000  Uiso   1.00
C116   C     0.44861   0.24007   0.66409   0.00000  Uiso   1.00
C117   C     0.43875   0.27253   0.69979   0.00000  Uiso   1.00
C118   C     0.40079   0.26533   0.73011   0.00000  Uiso   1.00
C119   C     0.37212   0.22549   0.72504   0.00000  Uiso   1.00
C120   C     0.38217   0.19290   0.68938   0.00000  Uiso   1.00
H77    H     0.42758   0.17407   0.63252   0.00000  Uiso   1.00
H78    H     0.46051   0.30345   0.70425   0.00000  Uiso   1.00
H79    H     0.39393   0.29100   0.75737   0.00000  Uiso   1.00
H80    H     0.36080   0.16171   0.68483   0.00000  Uiso   1.00
B20    B     0.32948   0.21731   0.75898   0.00000  Uiso   1.00
O20    O     0.32262   0.24979   0.79827   0.00000  Uiso   1.00
C121   C     0.57966   0.29999   0.65930   0.00000  Uiso   1.00
C122   C     0.55139   0.25993   0.66409   0.00000  Uiso   1.00
C123   C     0.56125   0.22747   0.69979   0.00000  Uiso   1.00
C124   C     0.59921   0.23467   0.73011   0.00000  Uiso   1.00
C125   C     0.62788   0.27451   0.72504   0.00000  Uiso   1.00
C126   C     0.61783   0.30710   0.68938   0.00000  Uiso   1.00
H81    H     0.57242   0.32593   0.63252   0.00000  Uiso   1.00
H82    H     0.53949   0.19655   0.70425   0.00000  Uiso   1.00
H83    H     0.60607   0.20900   0.75737   0.00000  Uiso   1.00
H84    H     0.63920   0.33829   0.68483   0.00000  Uiso   1.00
B21    B     0.67052   0.28269   0.75898   0.00000  Uiso   1.00
O21    O     0.67738   0.25021   0.79827   0.00000  Uiso   1.00
C127   C     0.07966   0.79999   0.15930   0.00000  Uiso   1.00
C128   C     0.05139   0.75993   0.16409   0.00000  Uiso   1.00
C129   C     0.06125   0.72747   0.19979   0.00000  Uiso   1.00
C130   C     0.09921   0.73467   0.23011   0.00000  Uiso   1.00
C131   C     0.12788   0.77451   0.22504   0.00000  Uiso   1.00
C132   C     0.11783   0.80710   0.18938   0.00000  Uiso   1.00
H85    H     0.07242   0.82593   0.13252   0.00000  Uiso   1.00
H86    H     0.03949   0.69655   0.20425   0.00000  Uiso   1.00
H87    H     0.10607   0.70900   0.25737   0.00000  Uiso   1.00
H88    H     0.13920   0.83829   0.18483   0.00000  Uiso   1.00
B22    B     0.17052   0.78269   0.25898   0.00000  Uiso   1.00
O22    O     0.17738   0.75021   0.29827   0.00000  Uiso   1.00
C133   C     0.42034   0.79999   0.84070   0.00000  Uiso   1.00
C134   C     0.44861   0.75993   0.83591   0.00000  Uiso   1.00
C135   C     0.43875   0.72747   0.80021   0.00000  Uiso   1.00
C136   C     0.40079   0.73467   0.76989   0.00000  Uiso   1.00
C137   C     0.37212   0.77451   0.77496   0.00000  Uiso   1.00
C138   C     0.38217   0.80710   0.81062   0.00000  Uiso   1.00
H89    H     0.42758   0.82593   0.86748   0.00000  Uiso   1.00
H90    H     0.46051   0.69655   0.79575   0.00000  Uiso   1.00
H91    H     0.39393   0.70900   0.74263   0.00000  Uiso   1.00
H92    H     0.36080   0.83829   0.81517   0.00000  Uiso   1.00
B23    B     0.32948   0.78269   0.74102   0.00000  Uiso   1.00
O23    O     0.32262   0.75021   0.70173   0.00000  Uiso   1.00
C139   C     0.92034   0.29999   0.34070   0.00000  Uiso   1.00
C140   C     0.94861   0.25993   0.33591   0.00000  Uiso   1.00
C141   C     0.93875   0.22747   0.30021   0.00000  Uiso   1.00
C142   C     0.90079   0.23467   0.26989   0.00000  Uiso   1.00
C143   C     0.87212   0.27451   0.27496   0.00000  Uiso   1.00
C144   C     0.88217   0.30710   0.31062   0.00000  Uiso   1.00
H93    H     0.92758   0.32593   0.36748   0.00000  Uiso   1.00
H94    H     0.96051   0.19655   0.29575   0.00000  Uiso   1.00
H95    H     0.89393   0.20900   0.24263   0.00000  Uiso   1.00
H96    H     0.86080   0.33829   0.31517   0.00000  Uiso   1.00
B24    B     0.82948   0.28269   0.24102   0.00000  Uiso   1.00
O24    O     0.82262   0.25021   0.20173   0.00000  Uiso   1.00
C145   C     0.32966   0.59070   0.45001   0.00000  Uiso   1.00
C146   C     0.30139   0.58591   0.49007   0.00000  Uiso   1.00
C147   C     0.31125   0.55021   0.52253   0.00000  Uiso   1.00
C148   C     0.34921   0.51989   0.51533   0.00000  Uiso   1.00
C149   C     0.37788   0.52496   0.47549   0.00000  Uiso   1.00
C150   C     0.36783   0.56062   0.44290   0.00000  Uiso   1.00
H97    H     0.32242   0.61748   0.42407   0.00000  Uiso   1.00
H98    H     0.28949   0.54575   0.55345   0.00000  Uiso   1.00
H99    H     0.35607   0.49263   0.54100   0.00000  Uiso   1.00
H100   H     0.38920   0.56517   0.41171   0.00000  Uiso   1.00
B25    B     0.42052   0.49102   0.46731   0.00000  Uiso   1.00
O25    O     0.42738   0.45173   0.49979   0.00000  Uiso   1.00
C151   C     0.82966   0.09070   0.95001   0.00000  Uiso   1.00
C152   C     0.80139   0.08591   0.99007   0.00000  Uiso   1.00
C153   C     0.81125   0.05021   0.02253   0.00000  Uiso   1.00
C154   C     0.84921   0.01989   0.01533   0.00000  Uiso   1.00
C155   C     0.87788   0.02496   0.97549   0.00000  Uiso   1.00
C156   C     0.86783   0.06062   0.94290   0.00000  Uiso   1.00
H101   H     0.82242   0.11748   0.92407   0.00000  Uiso   1.00
H102   H     0.78949   0.04575   0.05345   0.00000  Uiso   1.00
H103   H     0.85607   0.99263   0.04100   0.00000  Uiso   1.00
H104   H     0.88920   0.06517   0.91171   0.00000  Uiso   1.00
B26    B     0.92052   0.99102   0.96731   0.00000  Uiso   1.00
O26    O     0.92738   0.95173   0.99979   0.00000  Uiso   1.00
C157   C     0.17034   0.40930   0.95001   0.00000  Uiso   1.00
C158   C     0.19861   0.41409   0.99007   0.00000  Uiso   1.00
C159   C     0.18875   0.44979   0.02253   0.00000  Uiso   1.00
C160   C     0.15079   0.48011   0.01533   0.00000  Uiso   1.00
C161   C     0.12212   0.47504   0.97549   0.00000  Uiso   1.00
C162   C     0.13217   0.43938   0.94290   0.00000  Uiso   1.00
H105   H     0.17758   0.38252   0.92407   0.00000  Uiso   1.00
H106   H     0.21051   0.45425   0.05345   0.00000  Uiso   1.00
H107   H     0.14393   0.50737   0.04100   0.00000  Uiso   1.00
H108   H     0.11080   0.43483   0.91171   0.00000  Uiso   1.00
B27    B     0.07948   0.50898   0.96731   0.00000  Uiso   1.00
O27    O     0.07262   0.54827   0.99979   0.00000  Uiso   1.00
C163   C     0.67034   0.90930   0.45001   0.00000  Uiso   1.00
C164   C     0.69861   0.91409   0.49007   0.00000  Uiso   1.00
C165   C     0.68875   0.94979   0.52253   0.00000  Uiso   1.00
C166   C     0.65079   0.98011   0.51533   0.00000  Uiso   1.00
C167   C     0.62212   0.97504   0.47549   0.00000  Uiso   1.00
C168   C     0.63217   0.93938   0.44290   0.00000  Uiso   1.00
H109   H     0.67758   0.88252   0.42407   0.00000  Uiso   1.00
H110   H     0.71051   0.95425   0.55345   0.00000  Uiso   1.00
H111   H     0.64393   0.00737   0.54100   0.00000  Uiso   1.00
H112   H     0.61080   0.93483   0.41171   0.00000  Uiso   1.00
B28    B     0.57948   0.00898   0.46731   0.00000  Uiso   1.00
O28    O     0.57262   0.04827   0.49979   0.00000  Uiso   1.00
C169   C     0.82966   0.90930   0.54999   0.00000  Uiso   1.00
C170   C     0.80139   0.91409   0.50993   0.00000  Uiso   1.00
C171   C     0.81125   0.94979   0.47747   0.00000  Uiso   1.00
C172   C     0.84921   0.98011   0.48467   0.00000  Uiso   1.00
C173   C     0.87788   0.97504   0.52451   0.00000  Uiso   1.00
C174   C     0.86783   0.93938   0.55710   0.00000  Uiso   1.00
H113   H     0.82242   0.88252   0.57593   0.00000  Uiso   1.00
H114   H     0.78949   0.95425   0.44655   0.00000  Uiso   1.00
H115   H     0.85607   0.00737   0.45900   0.00000  Uiso   1.00
H116   H     0.88920   0.93483   0.58829   0.00000  Uiso   1.00
B29    B     0.92052   0.00898   0.53269   0.00000  Uiso   1.00
O29    O     0.92738   0.04827   0.50021   0.00000  Uiso   1.00
C175   C     0.32966   0.40930   0.04999   0.00000  Uiso   1.00
C176   C     0.30139   0.41409   0.00993   0.00000  Uiso   1.00
C177   C     0.31125   0.44979   0.97747   0.00000  Uiso   1.00
C178   C     0.34921   0.48011   0.98467   0.00000  Uiso   1.00
C179   C     0.37788   0.47504   0.02451   0.00000  Uiso   1.00
C180   C     0.36783   0.43938   0.05710   0.00000  Uiso   1.00
H117   H     0.32242   0.38252   0.07593   0.00000  Uiso   1.00
H118   H     0.28949   0.45425   0.94655   0.00000  Uiso   1.00
H119   H     0.35607   0.50737   0.95900   0.00000  Uiso   1.00
H120   H     0.38920   0.43483   0.08829   0.00000  Uiso   1.00
B30    B     0.42052   0.50898   0.03269   0.00000  Uiso   1.00
O30    O     0.42738   0.54827   0.00021   0.00000  Uiso   1.00
C181   C     0.67034   0.09070   0.04999   0.00000  Uiso   1.00
C182   C     0.69861   0.08591   0.00993   0.00000  Uiso   1.00
C183   C     0.68875   0.05021   0.97747   0.00000  Uiso   1.00
C184   C     0.65079   0.01989   0.98467   0.00000  Uiso   1.00
C185   C     0.62212   0.02496   0.02451   0.00000  Uiso   1.00
C186   C     0.63217   0.06062   0.05710   0.00000  Uiso   1.00
H121   H     0.67758   0.11748   0.07593   0.00000  Uiso   1.00
H122   H     0.71051   0.04575   0.94655   0.00000  Uiso   1.00
H123   H     0.64393   0.99263   0.95900   0.00000  Uiso   1.00
H124   H     0.61080   0.06517   0.08829   0.00000  Uiso   1.00
B31    B     0.57948   0.99102   0.03269   0.00000  Uiso   1.00
O31    O     0.57262   0.95173   0.00021   0.00000  Uiso   1.00
C187   C     0.17034   0.59070   0.54999   0.00000  Uiso   1.00
C188   C     0.19861   0.58591   0.50993   0.00000  Uiso   1.00
C189   C     0.18875   0.55021   0.47747   0.00000  Uiso   1.00
C190   C     0.15079   0.51989   0.48467   0.00000  Uiso   1.00
C191   C     0.12212   0.52496   0.52451   0.00000  Uiso   1.00
C192   C     0.13217   0.56062   0.55710   0.00000  Uiso   1.00
H125   H     0.17758   0.61748   0.57593   0.00000  Uiso   1.00
H126   H     0.21051   0.54575   0.44655   0.00000  Uiso   1.00
H127   H     0.14393   0.49263   0.45900   0.00000  Uiso   1.00
H128   H     0.11080   0.56517   0.58829   0.00000  Uiso   1.00
B32    B     0.07948   0.49102   0.53269   0.00000  Uiso   1.00
O32    O     0.07262   0.45173   0.50021   0.00000  Uiso   1.00
C193   C     0.59070   0.45001   0.32966   0.00000  Uiso   1.00
C194   C     0.58591   0.49007   0.30139   0.00000  Uiso   1.00
C195   C     0.55021   0.52253   0.31125   0.00000  Uiso   1.00
C196   C     0.51989   0.51533   0.34921   0.00000  Uiso   1.00
C197   C     0.52496   0.47549   0.37788   0.00000  Uiso   1.00
C198   C     0.56062   0.44290   0.36783   0.00000  Uiso   1.00
H129   H     0.61748   0.42407   0.32242   0.00000  Uiso   1.00
H130   H     0.54575   0.55345   0.28949   0.00000  Uiso   1.00
H131   H     0.49263   0.54100   0.35607   0.00000  Uiso   1.00
H132   H     0.56517   0.41171   0.38920   0.00000  Uiso   1.00
B33    B     0.49102   0.46731   0.42052   0.00000  Uiso   1.00
O33    O     0.45173   0.49979   0.42738   0.00000  Uiso   1.00
C199   C     0.09070   0.95001   0.82966   0.00000  Uiso   1.00
C200   C     0.08591   0.99007   0.80139   0.00000  Uiso   1.00
C201   C     0.05021   0.02253   0.81125   0.00000  Uiso   1.00
C202   C     0.01989   0.01533   0.84921   0.00000  Uiso   1.00
C203   C     0.02496   0.97549   0.87788   0.00000  Uiso   1.00
C204   C     0.06062   0.94290   0.86783   0.00000  Uiso   1.00
H133   H     0.11748   0.92407   0.82242   0.00000  Uiso   1.00
H134   H     0.04575   0.05345   0.78949   0.00000  Uiso   1.00
H135   H     0.99263   0.04100   0.85607   0.00000  Uiso   1.00
H136   H     0.06517   0.91171   0.88920   0.00000  Uiso   1.00
B34    B     0.99102   0.96731   0.92052   0.00000  Uiso   1.00
O34    O     0.95173   0.99979   0.92738   0.00000  Uiso   1.00
C205   C     0.40930   0.95001   0.17034   0.00000  Uiso   1.00
C206   C     0.41409   0.99007   0.19861   0.00000  Uiso   1.00
C207   C     0.44979   0.02253   0.18875   0.00000  Uiso   1.00
C208   C     0.48011   0.01533   0.15079   0.00000  Uiso   1.00
C209   C     0.47504   0.97549   0.12212   0.00000  Uiso   1.00
C210   C     0.43938   0.94290   0.13217   0.00000  Uiso   1.00
H137   H     0.38252   0.92407   0.17758   0.00000  Uiso   1.00
H138   H     0.45425   0.05345   0.21051   0.00000  Uiso   1.00
H139   H     0.50737   0.04100   0.14393   0.00000  Uiso   1.00
H140   H     0.43483   0.91171   0.11080   0.00000  Uiso   1.00
B35    B     0.50898   0.96731   0.07948   0.00000  Uiso   1.00
O35    O     0.54827   0.99979   0.07262   0.00000  Uiso   1.00
C211   C     0.90930   0.45001   0.67034   0.00000  Uiso   1.00
C212   C     0.91409   0.49007   0.69861   0.00000  Uiso   1.00
C213   C     0.94979   0.52253   0.68875   0.00000  Uiso   1.00
C214   C     0.98011   0.51533   0.65079   0.00000  Uiso   1.00
C215   C     0.97504   0.47549   0.62212   0.00000  Uiso   1.00
C216   C     0.93938   0.44290   0.63217   0.00000  Uiso   1.00
H141   H     0.88252   0.42407   0.67758   0.00000  Uiso   1.00
H142   H     0.95425   0.55345   0.71051   0.00000  Uiso   1.00
H143   H     0.00737   0.54100   0.64393   0.00000  Uiso   1.00
H144   H     0.93483   0.41171   0.61080   0.00000  Uiso   1.00
B36    B     0.00898   0.46731   0.57948   0.00000  Uiso   1.00
O36    O     0.04827   0.49979   0.57262   0.00000  Uiso   1.00
C217   C     0.90930   0.54999   0.82966   0.00000  Uiso   1.00
C218   C     0.91409   0.50993   0.80139   0.00000  Uiso   1.00
C219   C     0.94979   0.47747   0.81125   0.00000  Uiso   1.00
C220   C     0.98011   0.48467   0.84921   0.00000  Uiso   1.00
C221   C     0.97504   0.52451   0.87788   0.00000  Uiso   1.00
C222   C     0.93938   0.55710   0.86783   0.00000  Uiso   1.00
H145   H     0.88252   0.57593   0.82242   0.00000  Uiso   1.00
H146   H     0.95425   0.44655   0.78949   0.00000  Uiso   1.00
H147   H     0.00737   0.45900   0.85607   0.00000  Uiso   1.00
H148   H     0.93483   0.58829   0.88920   0.00000  Uiso   1.00
B37    B     0.00898   0.53269   0.92052   0.00000  Uiso   1.00
O37    O     0.04827   0.50021   0.92738   0.00000  Uiso   1.00
C223   C     0.40930   0.04999   0.32966   0.00000  Uiso   1.00
C224   C     0.41409   0.00993   0.30139   0.00000  Uiso   1.00
C225   C     0.44979   0.97747   0.31125   0.00000  Uiso   1.00
C226   C     0.48011   0.98467   0.34921   0.00000  Uiso   1.00
C227   C     0.47504   0.02451   0.37788   0.00000  Uiso   1.00
C228   C     0.43938   0.05710   0.36783   0.00000  Uiso   1.00
H149   H     0.38252   0.07593   0.32242   0.00000  Uiso   1.00
H150   H     0.45425   0.94655   0.28949   0.00000  Uiso   1.00
H151   H     0.50737   0.95900   0.35607   0.00000  Uiso   1.00
H152   H     0.43483   0.08829   0.38920   0.00000  Uiso   1.00
B38    B     0.50898   0.03269   0.42052   0.00000  Uiso   1.00
O38    O     0.54827   0.00021   0.42738   0.00000  Uiso   1.00
C229   C     0.09070   0.04999   0.67034   0.00000  Uiso   1.00
C230   C     0.08591   0.00993   0.69861   0.00000  Uiso   1.00
C231   C     0.05021   0.97747   0.68875   0.00000  Uiso   1.00
C232   C     0.01989   0.98467   0.65079   0.00000  Uiso   1.00
C233   C     0.02496   0.02451   0.62212   0.00000  Uiso   1.00
C234   C     0.06062   0.05710   0.63217   0.00000  Uiso   1.00
H153   H     0.11748   0.07593   0.67758   0.00000  Uiso   1.00
H154   H     0.04575   0.94655   0.71051   0.00000  Uiso   1.00
H155   H     0.99263   0.95900   0.64393   0.00000  Uiso   1.00
H156   H     0.06517   0.08829   0.61080   0.00000  Uiso   1.00
B39    B     0.99102   0.03269   0.57948   0.00000  Uiso   1.00
O39    O     0.95173   0.00021   0.57262   0.00000  Uiso   1.00
C235   C     0.59070   0.54999   0.17034   0.00000  Uiso   1.00
C236   C     0.58591   0.50993   0.19861   0.00000  Uiso   1.00
C237   C     0.55021   0.47747   0.18875   0.00000  Uiso   1.00
C238   C     0.51989   0.48467   0.15079   0.00000  Uiso   1.00
C239   C     0.52496   0.52451   0.12212   0.00000  Uiso   1.00
C240   C     0.56062   0.55710   0.13217   0.00000  Uiso   1.00
H157   H     0.61748   0.57593   0.17758   0.00000  Uiso   1.00
H158   H     0.54575   0.44655   0.21051   0.00000  Uiso   1.00
H159   H     0.49263   0.45900   0.14393   0.00000  Uiso   1.00
H160   H     0.56517   0.58829   0.11080   0.00000  Uiso   1.00
B40    B     0.49102   0.53269   0.07948   0.00000  Uiso   1.00
O40    O     0.45173   0.50021   0.07262   0.00000  Uiso   1.00
C241   C     0.45001   0.32966   0.59070   0.00000  Uiso   1.00
C242   C     0.49007   0.30139   0.58591   0.00000  Uiso   1.00
C243   C     0.52253   0.31125   0.55021   0.00000  Uiso   1.00
C244   C     0.51533   0.34921   0.51989   0.00000  Uiso   1.00
C245   C     0.47549   0.37788   0.52496   0.00000  Uiso   1.00
C246   C     0.44290   0.36783   0.56062   0.00000  Uiso   1.00
H161   H     0.42407   0.32242   0.61748   0.00000  Uiso   1.00
H162   H     0.55345   0.28949   0.54575   0.00000  Uiso   1.00
H163   H     0.54100   0.35607   0.49263   0.00000  Uiso   1.00
H164   H     0.41171   0.38920   0.56517   0.00000  Uiso   1.00
B41    B     0.46731   0.42052   0.49102   0.00000  Uiso   1.00
O41    O     0.49979   0.42738   0.45173   0.00000  Uiso   1.00
C247   C     0.95001   0.82966   0.09070   0.00000  Uiso   1.00
C248   C     0.99007   0.80139   0.08591   0.00000  Uiso   1.00
C249   C     0.02253   0.81125   0.05021   0.00000  Uiso   1.00
C250   C     0.01533   0.84921   0.01989   0.00000  Uiso   1.00
C251   C     0.97549   0.87788   0.02496   0.00000  Uiso   1.00
C252   C     0.94290   0.86783   0.06062   0.00000  Uiso   1.00
H165   H     0.92407   0.82242   0.11748   0.00000  Uiso   1.00
H166   H     0.05345   0.78949   0.04575   0.00000  Uiso   1.00
H167   H     0.04100   0.85607   0.99263   0.00000  Uiso   1.00
H168   H     0.91171   0.88920   0.06517   0.00000  Uiso   1.00
B42    B     0.96731   0.92052   0.99102   0.00000  Uiso   1.00
O42    O     0.99979   0.92738   0.95173   0.00000  Uiso   1.00
C253   C     0.95001   0.17034   0.40930   0.00000  Uiso   1.00
C254   C     0.99007   0.19861   0.41409   0.00000  Uiso   1.00
C255   C     0.02253   0.18875   0.44979   0.00000  Uiso   1.00
C256   C     0.01533   0.15079   0.48011   0.00000  Uiso   1.00
C257   C     0.97549   0.12212   0.47504   0.00000  Uiso   1.00
C258   C     0.94290   0.13217   0.43938   0.00000  Uiso   1.00
H169   H     0.92407   0.17758   0.38252   0.00000  Uiso   1.00
H170   H     0.05345   0.21051   0.45425   0.00000  Uiso   1.00
H171   H     0.04100   0.14393   0.50737   0.00000  Uiso   1.00
H172   H     0.91171   0.11080   0.43483   0.00000  Uiso   1.00
B43    B     0.96731   0.07948   0.50898   0.00000  Uiso   1.00
O43    O     0.99979   0.07262   0.54827   0.00000  Uiso   1.00
C259   C     0.45001   0.67034   0.90930   0.00000  Uiso   1.00
C260   C     0.49007   0.69861   0.91409   0.00000  Uiso   1.00
C261   C     0.52253   0.68875   0.94979   0.00000  Uiso   1.00
C262   C     0.51533   0.65079   0.98011   0.00000  Uiso   1.00
C263   C     0.47549   0.62212   0.97504   0.00000  Uiso   1.00
C264   C     0.44290   0.63217   0.93938   0.00000  Uiso   1.00
H173   H     0.42407   0.67758   0.88252   0.00000  Uiso   1.00
H174   H     0.55345   0.71051   0.95425   0.00000  Uiso   1.00
H175   H     0.54100   0.64393   0.00737   0.00000  Uiso   1.00
H176   H     0.41171   0.61080   0.93483   0.00000  Uiso   1.00
B44    B     0.46731   0.57948   0.00898   0.00000  Uiso   1.00
O44    O     0.49979   0.57262   0.04827   0.00000  Uiso   1.00
C265   C     0.54999   0.82966   0.90930   0.00000  Uiso   1.00
C266   C     0.50993   0.80139   0.91409   0.00000  Uiso   1.00
C267   C     0.47747   0.81125   0.94979   0.00000  Uiso   1.00
C268   C     0.48467   0.84921   0.98011   0.00000  Uiso   1.00
C269   C     0.52451   0.87788   0.97504   0.00000  Uiso   1.00
C270   C     0.55710   0.86783   0.93938   0.00000  Uiso   1.00
H177   H     0.57593   0.82242   0.88252   0.00000  Uiso   1.00
H178   H     0.44655   0.78949   0.95425   0.00000  Uiso   1.00
H179   H     0.45900   0.85607   0.00737   0.00000  Uiso   1.00
H180   H     0.58829   0.88920   0.93483   0.00000  Uiso   1.00
B45    B     0.53269   0.92052   0.00898   0.00000  Uiso   1.00
O45    O     0.50021   0.92738   0.04827   0.00000  Uiso   1.00
C271   C     0.04999   0.32966   0.40930   0.00000  Uiso   1.00
C272   C     0.00993   0.30139   0.41409   0.00000  Uiso   1.00
C273   C     0.97747   0.31125   0.44979   0.00000  Uiso   1.00
C274   C     0.98467   0.34921   0.48011   0.00000  Uiso   1.00
C275   C     0.02451   0.37788   0.47504   0.00000  Uiso   1.00
C276   C     0.05710   0.36783   0.43938   0.00000  Uiso   1.00
H181   H     0.07593   0.32242   0.38252   0.00000  Uiso   1.00
H182   H     0.94655   0.28949   0.45425   0.00000  Uiso   1.00
H183   H     0.95900   0.35607   0.50737   0.00000  Uiso   1.00
H184   H     0.08829   0.38920   0.43483   0.00000  Uiso   1.00
B46    B     0.03269   0.42052   0.50898   0.00000  Uiso   1.00
O46    O     0.00021   0.42738   0.54827   0.00000  Uiso   1.00
C277   C     0.04999   0.67034   0.09070   0.00000  Uiso   1.00
C278   C     0.00993   0.69861   0.08591   0.00000  Uiso   1.00
C279   C     0.97747   0.68875   0.05021   0.00000  Uiso   1.00
C280   C     0.98467   0.65079   0.01989   0.00000  Uiso   1.00
C281   C     0.02451   0.62212   0.02496   0.00000  Uiso   1.00
C282   C     0.05710   0.63217   0.06062   0.00000  Uiso   1.00
H185   H     0.07593   0.67758   0.11748   0.00000  Uiso   1.00
H186   H     0.94655   0.71051   0.04575   0.00000  Uiso   1.00
H187   H     0.95900   0.64393   0.99263   0.00000  Uiso   1.00
H188   H     0.08829   0.61080   0.06517   0.00000  Uiso   1.00
B47    B     0.03269   0.57948   0.99102   0.00000  Uiso   1.00
O47    O     0.00021   0.57262   0.95173   0.00000  Uiso   1.00
C283   C     0.54999   0.17034   0.59070   0.00000  Uiso   1.00
C284   C     0.50993   0.19861   0.58591   0.00000  Uiso   1.00
C285   C     0.47747   0.18875   0.55021   0.00000  Uiso   1.00
C286   C     0.48467   0.15079   0.51989   0.00000  Uiso   1.00
C287   C     0.52451   0.12212   0.52496   0.00000  Uiso   1.00
C288   C     0.55710   0.13217   0.56062   0.00000  Uiso   1.00
H189   H     0.57593   0.17758   0.61748   0.00000  Uiso   1.00
H190   H     0.44655   0.21051   0.54575   0.00000  Uiso   1.00
H191   H     0.45900   0.14393   0.49263   0.00000  Uiso   1.00
H192   H     0.58829   0.11080   0.56517   0.00000  Uiso   1.00
B48    B     0.53269   0.07948   0.49102   0.00000  Uiso   1.00
O48    O     0.50021   0.07262   0.45173   0.00000  Uiso   1.00
Si1    Si    0.37500   0.00000   0.25000   0.00000  Uiso   1.00
Si2    Si    0.12500   0.00000   0.75000   0.00000  Uiso   1.00
Si3    Si    0.62500   0.50000   0.25000   0.00000  Uiso   1.00
Si4    Si    0.87500   0.50000   0.75000   0.00000  Uiso   1.00
Si5    Si    0.25000   0.37500   0.00000   0.00000  Uiso   1.00
Si6    Si    0.75000   0.12500   0.00000   0.00000  Uiso   1.00
Si7    Si    0.25000   0.62500   0.50000   0.00000  Uiso   1.00
Si8    Si    0.75000   0.87500   0.50000   0.00000  Uiso   1.00
Si9    Si    0.00000   0.25000   0.37500   0.00000  Uiso   1.00
Si10   Si    0.00000   0.75000   0.12500   0.00000  Uiso   1.00
Si11   Si    0.50000   0.25000   0.62500   0.00000  Uiso   1.00
Si12   Si    0.50000   0.75000   0.87500   0.00000  Uiso   1.00
loop_
_geom_bond_atom_site_label_1
_geom_bond_atom_site_label_2
_geom_bond_distance
_geom_bond_site_symmetry_2
_ccdc_geom_bond_type
C1     C2      1.392   .     S
C1     C6      1.387   .     S
C1     H1      1.073   .     S
C2     C3      1.391   .     S
C2     Si1     1.845   .     S
C3     C4      1.387   .     S
C3     H2      1.075   .     S
C4     C5      1.394   .     S
C4     H3      1.075   .     S
C5     B1      1.557   .     S
C5     C6      1.394   .     S
C6     H4      1.076   .     S
B1     O1      1.453   .     S
B1     O9      1.453   .     S
O1     B17     1.453   .     S
C7     C12     1.387   .     S
C7     H5      1.073   .     S
C7     C8      1.392   .     S
C8     Si4     1.845   .     S
C8     C9      1.391   .     S
C9     H6      1.075   .     S
C9     C10     1.387   .     S
C10    H7      1.075   .     S
C10    C11     1.394   .     S
C11    C12     1.394   .     S
C11    B2      1.557   .     S
C12    H8      1.076   .     S
B2     O2      1.453   .     S
B2     O10     1.453   .     S
O2     B18     1.453   .     S
C13    C14     1.392   .     S
C13    C18     1.387   .     S
C13    H9      1.073   .     S
C14    C15     1.391   .     S
C15    C16     1.387   .     S
C15    H10     1.075   .     S
C16    H11     1.075   .     S
C16    C17     1.394   .     S
C17    C18     1.394   .     S
C17    B3      1.557   .     S
C18    H12     1.076   .     S
B3     O13     1.453   .     S
B3     O3      1.453   .     S
O3     B23     1.453   .     S
C19    C20     1.392   .     S
C19    C24     1.387   .     S
C19    H13     1.073   .     S
C20    C21     1.391   .     S
C20    Si3     1.845   .     S
C21    C22     1.387   .     S
C21    H14     1.075   .     S
C22    C23     1.394   .     S
C22    H15     1.075   .     S
C23    B4      1.557   .     S
C23    C24     1.394   .     S
C24    H16     1.076   .     S
B4     O4      1.453   .     S
B4     O14     1.453   .     S
O4     B24     1.453   .     S
C25    H17     1.073   .     S
C25    C30     1.387   .     S
C25    C26     1.392   .     S
C26    Si3     1.845   .     S
C26    C27     1.391   .     S
C27    H18     1.075   .     S
C27    C28     1.387   .     S
C28    C29     1.394   .     S
C28    H19     1.075   .     S
C29    B5      1.557   .     S
C29    C30     1.394   .     S
C30    H20     1.076   .     S
B5     O5      1.453   .     S
B5     O15     1.453   .     S
O5     B19     1.453   .     S
C31    H21     1.073   .     S
C31    C36     1.387   .     S
C31    C32     1.392   .     S
C32    C33     1.391   .     S
C32    Si2     1.845   .     S
C33    H22     1.075   .     S
C33    C34     1.387   .     S
C34    H23     1.075   .     S
C34    C35     1.394   .     S
C35    B6      1.557   .     S
C35    C36     1.394   .     S
C36    H24     1.076   .     S
B6     O16     1.453   .     S
B6     O6      1.453   .     S
O6     B20     1.453   .     S
C37    C42     1.387   .     S
C37    H25     1.073   .     S
C37    C38     1.392   .     S
C38    C39     1.391   .     S
C38    Si4     1.845   .     S
C39    C40     1.387   .     S
C39    H26     1.075   .     S
C40    H27     1.075   .     S
C40    C41     1.394   .     S
C41    B7      1.557   .     S
C41    C42     1.394   .     S
C42    H28     1.076   .     S
B7     O11     1.453   .     S
B7     O7      1.453   .     S
O7     B21     1.453   .     S
C43    C48     1.387   .     S
C43    H29     1.073   .     S
C43    C44     1.392   .     S
C44    C45     1.391   .     S
C45    C46     1.387   .     S
C45    H30     1.075   .     S
C46    C47     1.394   .     S
C46    H31     1.075   .     S
C47    B8      1.557   .     S
C47    C48     1.394   .     S
C48    H32     1.076   .     S
B8     O8      1.453   .     S
B8     O12     1.453   .     S
O8     B22     1.453   .     S
C49    C50     1.392   .     S
C49    H33     1.073   .     S
C49    C54     1.387   .     S
C50    C51     1.391   .     S
C50    Si5     1.845   .     S
C51    H34     1.075   .     S
C51    C52     1.387   .     S
C52    C53     1.394   .     S
C52    H35     1.075   .     S
C53    B9      1.557   .     S
C53    C54     1.394   .     S
C54    H36     1.076   .     S
B9     O9      1.453   .     S
B9     O17     1.453   .     S
C55    C60     1.387   .     S
C55    H37     1.073   .     S
C55    C56     1.392   .     S
C56    C57     1.391   .     S
C56    Si8     1.845   .     S
C57    H38     1.075   .     S
C57    C58     1.387   .     S
C58    C59     1.394   .     S
C58    H39     1.075   .     S
C59    C60     1.394   .     S
C59    B10     1.557   .     S
C60    H40     1.076   .     S
B10    O10     1.453   .     S
B10    O18     1.453   .     S
C61    C62     1.392   .     S
C61    C66     1.387   .     S
C61    H41     1.073   .     S
C62    C63     1.391   .     S
C63    C64     1.387   .     S
C63    H42     1.075   .     S
C64    H43     1.075   .     S
C64    C65     1.394   .     S
C65    C66     1.394   .     S
C65    B11     1.557   .     S
C66    H44     1.076   .     S
B11    O21     1.453   .     S
B11    O11     1.453   .     S
C67    C68     1.392   .     S
C67    H45     1.073   .     S
C67    C72     1.387   .     S
C68    C69     1.391   .     S
C68    Si7     1.845   .     S
C69    C70     1.387   .     S
C69    H46     1.075   .     S
C70    H47     1.075   .     S
C70    C71     1.394   .     S
C71    B12     1.557   .     S
C71    C72     1.394   .     S
C72    H48     1.076   .     S
B12    O22     1.453   .     S
B12    O12     1.453   .     S
C73    H49     1.073   .     S
C73    C78     1.387   .     S
C73    C74     1.392   .     S
C74    Si7     1.845   .     S
C74    C75     1.391   .     S
C75    H50     1.075   .     S
C75    C76     1.387   .     S
C76    C77     1.394   .     S
C76    H51     1.075   .     S
C77    C78     1.394   .     S
C77    B13     1.557   .     S
C78    H52     1.076   .     S
B13    O23     1.453   .     S
B13    O13     1.453   .     S
C79    H53     1.073   .     S
C79    C80     1.392   .     S
C79    C84     1.387   .     S
C80    C81     1.391   .     S
C80    Si6     1.845   .     S
C81    H54     1.075   .     S
C81    C82     1.387   .     S
C82    H55     1.075   .     S
C82    C83     1.394   .     S
C83    B14     1.557   .     S
C83    C84     1.394   .     S
C84    H56     1.076   .     S
B14    O14     1.453   .     S
B14    O24     1.453   .     S
C85    C90     1.387   .     S
C85    C86     1.392   .     S
C85    H57     1.073   .     S
C86    C87     1.391   .     S
C86    Si8     1.845   .     S
C87    C88     1.387   .     S
C87    H58     1.075   .     S
C88    H59     1.075   .     S
C88    C89     1.394   .     S
C89    B15     1.557   .     S
C89    C90     1.394   .     S
C90    H60     1.076   .     S
B15    O19     1.453   .     S
B15    O15     1.453   .     S
C91    C96     1.387   .     S
C91    H61     1.073   .     S
C91    C92     1.392   .     S
C92    C93     1.391   .     S
C93    C94     1.387   .     S
C93    H62     1.075   .     S
C94    C95     1.394   .     S
C94    H63     1.075   .     S
C95    C96     1.394   .     S
C95    B16     1.557   .     S
C96    H64     1.076   .     S
B16    O16     1.453   .     S
B16    O20     1.453   .     S
C97    C98     1.392   .     S
C97    C102    1.387   .     S
C97    H65     1.073   .     S
C98    C99     1.391   .     S
C98    Si9     1.845   .     S
C99    H66     1.075   .     S
C99    C100    1.387   .     S
C100   C101    1.394   .     S
C100   H67     1.075   .     S
C101   B17     1.557   .     S
C101   C102    1.394   .     S
C102   H68     1.076   .     S
B17    O17     1.453   .     S
C103   C108    1.387   .     S
C103   C104    1.392   .     S
C103   H69     1.073   .     S
C104   C105    1.391   .     S
C104   Si12    1.845   .     S
C105   H70     1.075   .     S
C105   C106    1.387   .     S
C106   C107    1.394   .     S
C106   H71     1.075   .     S
C107   C108    1.394   .     S
C107   B18     1.557   .     S
C108   H72     1.076   .     S
B18    O18     1.453   .     S
C109   C110    1.392   .     S
C109   C114    1.387   .     S
C109   H73     1.073   .     S
C110   C111    1.391   .     S
C111   C112    1.387   .     S
C111   H74     1.075   .     S
C112   H75     1.075   .     S
C112   C113    1.394   .     S
C113   B19     1.557   .     S
C113   C114    1.394   .     S
C114   H76     1.076   .     S
B19    O19     1.453   .     S
C115   C116    1.392   .     S
C115   H77     1.073   .     S
C115   C120    1.387   .     S
C116   Si11    1.845   .     S
C116   C117    1.391   .     S
C117   C118    1.387   .     S
C117   H78     1.075   .     S
C118   C119    1.394   .     S
C118   H79     1.075   .     S
C119   B20     1.557   .     S
C119   C120    1.394   .     S
C120   H80     1.076   .     S
B20    O20     1.453   .     S
C121   H81     1.073   .     S
C121   C122    1.392   .     S
C121   C126    1.387   .     S
C122   Si11    1.845   .     S
C122   C123    1.391   .     S
C123   H82     1.075   .     S
C123   C124    1.387   .     S
C124   C125    1.394   .     S
C124   H83     1.075   .     S
C125   B21     1.557   .     S
C125   C126    1.394   .     S
C126   H84     1.076   .     S
B21    O21     1.453   .     S
C127   H85     1.073   .     S
C127   C132    1.387   .     S
C127   C128    1.392   .     S
C128   Si10    1.845   .     S
C128   C129    1.391   .     S
C129   H86     1.075   .     S
C129   C130    1.387   .     S
C130   H87     1.075   .     S
C130   C131    1.394   .     S
C131   B22     1.557   .     S
C131   C132    1.394   .     S
C132   H88     1.076   .     S
B22    O22     1.453   .     S
C133   C138    1.387   .     S
C133   C134    1.392   .     S
C133   H89     1.073   .     S
C134   C135    1.391   .     S
C134   Si12    1.845   .     S
C135   C136    1.387   .     S
C135   H90     1.075   .     S
C136   C137    1.394   .     S
C136   H91     1.075   .     S
C137   C138    1.394   .     S
C137   B23     1.557   .     S
C138   H92     1.076   .     S
B23    O23     1.453   .     S
C139   C144    1.387   .     S
C139   H93     1.073   .     S
C139   C140    1.392   .     S
C140   C141    1.391   .     S
C141   H94     1.075   .     S
C141   C142    1.387   .     S
C142   C143    1.394   .     S
C142   H95     1.075   .     S
C143   B24     1.557   .     S
C143   C144    1.394   .     S
C144   H96     1.076   .     S
B24    O24     1.453   .     S
C145   H97     1.073   .     S
C145   C150    1.387   .     S
C145   C146    1.392   .     S
C146   Si7     1.845   .     S
C146   C147    1.391   .     S
C147   C148    1.387   .     S
C147   H98     1.075   .     S
C148   H99     1.075   .     S
C148   C149    1.394   .     S
C149   C150    1.394   .     S
C149   B25     1.557   .     S
C150   H100    1.076   .     S
B25    O33     1.453   .     S
B25    O25     1.453   .     S
O25    B41     1.453   .     S
C151   C156    1.387   .     S
C151   H101    1.073   .     S
C151   C152    1.392   .     S
C153   C154    1.387   .     S
C153   H102    1.075   .     S
C155   C156    1.394   .     S
C156   H104    1.076   .     S
B26    O26     1.453   .     S
B26    O34     1.453   .     S
O26    B42     1.453   .     S
C157   C162    1.387   .     S
C157   H105    1.073   .     S
C157   C158    1.392   .     S
C159   H106    1.075   .     S
C159   C160    1.387   .     S
C160   H107    1.075   .     S
C161   B27     1.557   .     S
C161   C162    1.394   .     S
C162   H108    1.076   .     S
B27    O27     1.453   .     S
B27    O37     1.453   .     S
O27    B47     1.453   .     S
C163   H109    1.073   .     S
C163   C168    1.387   .     S
C163   C164    1.392   .     S
C164   C165    1.391   .     S
C164   Si8     1.845   .     S
C165   H110    1.075   .     S
C165   C166    1.387   .     S
C166   C167    1.394   .     S
C167   C168    1.394   .     S
C168   H112    1.076   .     S
B28    O38     1.453   .     S
B28    O28     1.453   .     S
O28    B48     1.453   .     S
C169   C170    1.392   .     S
C169   C174    1.387   .     S
C169   H113    1.073   .     S
C170   C171    1.391   .     S
C170   Si8     1.845   .     S
C171   C172    1.387   .     S
C171   H114    1.075   .     S
C172   C173    1.394   .     S
C173   C174    1.394   .     S
C174   H116    1.076   .     S
B29    O29     1.453   .     S
B29    O39     1.453   .     S
O29    B43     1.453   .     S
C175   C176    1.392   .     S
C175   C180    1.387   .     S
C175   H117    1.073   .     S
C176   Si5     1.845   .     S
C177   C178    1.387   .     S
C177   H118    1.075   .     S
C178   H119    1.075   .     S
C179   C180    1.394   .     S
C179   B30     1.557   .     S
C180   H120    1.076   .     S
B30    O30     1.453   .     S
B30    O40     1.453   .     S
O30    B44     1.453   .     S
C181   C182    1.392   .     S
C181   C186    1.387   .     S
C181   H121    1.073   .     S
C182   Si6     1.845   .     S
C183   C184    1.387   .     S
C183   H122    1.075   .     S
C185   C186    1.394   .     S
C186   H124    1.076   .     S
B31    O35     1.453   .     S
B31    O31     1.453   .     S
O31    B45     1.453   .     S
C187   C188    1.392   .     S
C187   C192    1.387   .     S
C187   H125    1.073   .     S
C188   Si7     1.845   .     S
C188   C189    1.391   .     S
C189   C190    1.387   .     S
C189   H126    1.075   .     S
C190   C191    1.394   .     S
C190   H127    1.075   .     S
C191   C192    1.394   .     S
C191   B32     1.557   .     S
C192   H128    1.076   .     S
B32    O32     1.453   .     S
B32    O36     1.453   .     S
O32    B46     1.453   .     S
C193   H129    1.073   .     S
C193   C198    1.387   .     S
C193   C194    1.392   .     S
C194   C195    1.391   .     S
C194   Si3     1.845   .     S
C195   C196    1.387   .     S
C195   H130    1.075   .     S
C196   H131    1.075   .     S
C196   C197    1.394   .     S
C197   C198    1.394   .     S
C197   B33     1.557   .     S
C198   H132    1.076   .     S
B33    O41     1.453   .     S
B33    O33     1.453   .     S
C199   H133    1.073   .     S
C199   C200    1.392   .     S
C199   C204    1.387   .     S
C201   C202    1.387   .     S
C201   H134    1.075   .     S
C203   C204    1.394   .     S
C204   H136    1.076   .     S
B34    O34     1.453   .     S
B34    O42     1.453   .     S
C205   C210    1.387   .     S
C205   H137    1.073   .     S
C205   C206    1.392   .     S
C207   C208    1.387   .     S
C207   H138    1.075   .     S
C208   H139    1.075   .     S
C209   C210    1.394   .     S
C209   B35     1.557   .     S
C210   H140    1.076   .     S
B35    O35     1.453   .     S
B35    O45     1.453   .     S
C211   H141    1.073   .     S
C211   C212    1.392   .     S
C211   C216    1.387   .     S
C212   C213    1.391   .     S
C212   Si4     1.845   .     S
C213   H142    1.075   .     S
C213   C214    1.387   .     S
C214   C215    1.394   .     S
C215   C216    1.394   .     S
C216   H144    1.076   .     S
B36    O36     1.453   .     S
B36    O46     1.453   .     S
C217   C218    1.392   .     S
C217   H145    1.073   .     S
C217   C222    1.387   .     S
C218   C219    1.391   .     S
C218   Si4     1.845   .     S
C219   C220    1.387   .     S
C219   H146    1.075   .     S
C220   C221    1.394   .     S
C221   C222    1.394   .     S
C222   H148    1.076   .     S
B37    O37     1.453   .     S
B37    O47     1.453   .     S
C223   C224    1.392   .     S
C223   C228    1.387   .     S
C223   H149    1.073   .     S
C224   Si1     1.845   .     S
C225   C226    1.387   .     S
C225   H150    1.075   .     S
C226   H151    1.075   .     S
C227   C228    1.394   .     S
C227   B38     1.557   .     S
C228   H152    1.076   .     S
B38    O38     1.453   .     S
B38    O48     1.453   .     S
C229   C230    1.392   .     S
C229   H153    1.073   .     S
C229   C234    1.387   .     S
C230   Si2     1.845   .     S
C231   H154    1.075   .     S
C231   C232    1.387   .     S
C233   C234    1.394   .     S
C234   H156    1.076   .     S
B39    O39     1.453   .     S
B39    O43     1.453   .     S
C235   C240    1.387   .     S
C235   H157    1.073   .     S
C235   C236    1.392   .     S
C236   Si3     1.845   .     S
C236   C237    1.391   .     S
C237   C238    1.387   .     S
C237   H158    1.075   .     S
C238   C239    1.394   .     S
C238   H159    1.075   .     S
C239   C240    1.394   .     S
C239   B40     1.557   .     S
C240   H160    1.076   .     S
B40    O40     1.453   .     S
B40    O44     1.453   .     S
C241   H161    1.073   .     S
C241   C242    1.392   .     S
C241   C246    1.387   .     S
C242   Si11    1.845   .     S
C242   C243    1.391   .     S
C243   C244    1.387   .     S
C243   H162    1.075   .     S
C244   H163    1.075   .     S
C244   C245    1.394   .     S
C245   C246    1.394   .     S
C245   B41     1.557   .     S
C246   H164    1.076   .     S
B41    O41     1.453   .     S
C247   C248    1.392   .     S
C247   C252    1.387   .     S
C247   H165    1.073   .     S
C249   C250    1.387   .     S
C249   H166    1.075   .     S
C251   C252    1.394   .     S
C252   H168    1.076   .     S
B42    O42     1.453   .     S
C253   C258    1.387   .     S
C253   H169    1.073   .     S
C253   C254    1.392   .     S
C255   H170    1.075   .     S
C255   C256    1.387   .     S
C256   H171    1.075   .     S
C257   C258    1.394   .     S
C257   B43     1.557   .     S
C258   H172    1.076   .     S
B43    O43     1.453   .     S
C259   H173    1.073   .     S
C259   C260    1.392   .     S
C259   C264    1.387   .     S
C260   C261    1.391   .     S
C260   Si12    1.845   .     S
C261   H174    1.075   .     S
C261   C262    1.387   .     S
C262   C263    1.394   .     S
C263   C264    1.394   .     S
C264   H176    1.076   .     S
B44    O44     1.453   .     S
C265   C266    1.392   .     S
C265   H177    1.073   .     S
C265   C270    1.387   .     S
C266   C267    1.391   .     S
C266   Si12    1.845   .     S
C267   C268    1.387   .     S
C267   H178    1.075   .     S
C268   C269    1.394   .     S
C269   C270    1.394   .     S
C270   H180    1.076   .     S
B45    O45     1.453   .     S
C271   C272    1.392   .     S
C271   C276    1.387   .     S
C271   H181    1.073   .     S
C272   Si9     1.845   .     S
C273   H182    1.075   .     S
C273   C274    1.387   .     S
C274   H183    1.075   .     S
C275   C276    1.394   .     S
C275   B46     1.557   .     S
C276   H184    1.076   .     S
B46    O46     1.453   .     S
C277   C278    1.392   .     S
C277   C282    1.387   .     S
C277   H185    1.073   .     S
C278   Si10    1.845   .     S
C279   H186    1.075   .     S
C279   C280    1.387   .     S
C281   C282    1.394   .     S
C282   H188    1.076   .     S
B47    O47     1.453   .     S
C283   H189    1.073   .     S
C283   C284    1.392   .     S
C283   C288    1.387   .     S
C284   Si11    1.845   .     S
C284   C285    1.391   .     S
C285   C286    1.387   .     S
C285   H190    1.075   .     S
C286   C287    1.394   .     S
C286   H191    1.075   .     S
C287   C288    1.394   .     S
C287   B48     1.557   .     S
C288   H192    1.076   .     S
B48    O48     1.453   .     S
