data_COF-202
_audit_creation_date              2016-12-13
_audit_creation_method            'Materials Studio'
_symmetry_space_group_name_H-M    'P1'
_symmetry_Int_Tables_number       1
_symmetry_cell_setting            triclinic
loop_
_symmetry_equiv_pos_as_xyz
  x,y,z
_cell_length_a                    30.1051
_cell_length_b                    30.1051
_cell_length_c                    30.1051
_cell_angle_alpha                 90.0000
_cell_angle_beta                  90.0000
_cell_angle_gamma                 90.0000
loop_
_atom_site_label
_atom_site_type_symbol
_atom_site_fract_x
_atom_site_fract_y
_atom_site_fract_z
_atom_site_U_iso_or_equiv
_atom_site_adp_type
_atom_site_occupancy
C1     C     0.69651   0.60579   0.23320   0.00000  Uiso   1.00
C2     C     0.65692   0.53943   0.25817   0.00000  Uiso   1.00
B1     B     0.75303   0.64665   0.28262   0.00000  Uiso   1.00
O1     O     0.76023   0.67980   0.24744   0.00000  Uiso   1.00
C3     C     0.68233   0.54069   0.29761   0.00000  Uiso   1.00
C4     C     0.71962   0.60789   0.27354   0.00000  Uiso   1.00
C5     C     0.71269   0.57482   0.30550   0.00000  Uiso   1.00
O2     O     0.77459   0.64915   0.32647   0.00000  Uiso   1.00
C6     C     0.74457   0.76781   0.18027   0.00000  Uiso   1.00
C7     C     0.86499   0.58812   0.34551   0.00000  Uiso   1.00
H1     H     0.72370   0.78885   0.15825   0.00000  Uiso   1.00
H2     H     0.77961   0.77905   0.17716   0.00000  Uiso   1.00
H3     H     0.74234   0.73293   0.16833   0.00000  Uiso   1.00
H4     H     0.88613   0.56612   0.36632   0.00000  Uiso   1.00
H5     H     0.83089   0.57397   0.34472   0.00000  Uiso   1.00
H6     H     0.87847   0.58794   0.31114   0.00000  Uiso   1.00
H7     H     0.67827   0.51519   0.32266   0.00000  Uiso   1.00
H8     H     0.65059   0.57045   0.19296   0.00000  Uiso   1.00
H9     H     0.73082   0.57508   0.33659   0.00000  Uiso   1.00
H10    H     0.70208   0.63031   0.20745   0.00000  Uiso   1.00
C8     C     0.47743   0.18020   0.58375   0.00000  Uiso   1.00
C9     C     0.19651   0.10579   0.73320   0.00000  Uiso   1.00
C10    C     0.15692   0.03943   0.75817   0.00000  Uiso   1.00
B2     B     0.25303   0.14665   0.78262   0.00000  Uiso   1.00
O3     O     0.26023   0.17980   0.74744   0.00000  Uiso   1.00
C11    C     0.18233   0.04069   0.79761   0.00000  Uiso   1.00
C12    C     0.21962   0.10789   0.77354   0.00000  Uiso   1.00
C13    C     0.21269   0.07482   0.80550   0.00000  Uiso   1.00
O4     O     0.27459   0.14915   0.82647   0.00000  Uiso   1.00
C14    C     0.24457   0.26781   0.68027   0.00000  Uiso   1.00
C15    C     0.36499   0.08812   0.84551   0.00000  Uiso   1.00
H11    H     0.22370   0.28885   0.65825   0.00000  Uiso   1.00
H12    H     0.27961   0.27905   0.67716   0.00000  Uiso   1.00
H13    H     0.24234   0.23293   0.66833   0.00000  Uiso   1.00
H14    H     0.38613   0.06612   0.86632   0.00000  Uiso   1.00
H15    H     0.33089   0.07397   0.84472   0.00000  Uiso   1.00
H16    H     0.37847   0.08794   0.81114   0.00000  Uiso   1.00
H17    H     0.17827   0.01519   0.82266   0.00000  Uiso   1.00
H18    H     0.15059   0.07045   0.69296   0.00000  Uiso   1.00
H19    H     0.23082   0.07508   0.83659   0.00000  Uiso   1.00
H20    H     0.20208   0.13031   0.70745   0.00000  Uiso   1.00
C16    C     0.97743   0.68020   0.08375   0.00000  Uiso   1.00
C17    C     0.80349   0.39421   0.73320   0.00000  Uiso   1.00
C18    C     0.84308   0.46057   0.75817   0.00000  Uiso   1.00
B3     B     0.74697   0.35335   0.78262   0.00000  Uiso   1.00
O5     O     0.73977   0.32020   0.74744   0.00000  Uiso   1.00
C19    C     0.81767   0.45931   0.79761   0.00000  Uiso   1.00
C20    C     0.78038   0.39211   0.77354   0.00000  Uiso   1.00
C21    C     0.78731   0.42518   0.80550   0.00000  Uiso   1.00
O6     O     0.72541   0.35085   0.82647   0.00000  Uiso   1.00
C22    C     0.75543   0.23219   0.68027   0.00000  Uiso   1.00
C23    C     0.63501   0.41188   0.84551   0.00000  Uiso   1.00
H21    H     0.77630   0.21115   0.65825   0.00000  Uiso   1.00
H22    H     0.72039   0.22095   0.67716   0.00000  Uiso   1.00
H23    H     0.75766   0.26707   0.66833   0.00000  Uiso   1.00
H24    H     0.61387   0.43388   0.86632   0.00000  Uiso   1.00
H25    H     0.66911   0.42603   0.84472   0.00000  Uiso   1.00
H26    H     0.62153   0.41206   0.81114   0.00000  Uiso   1.00
H27    H     0.82173   0.48481   0.82266   0.00000  Uiso   1.00
H28    H     0.84941   0.42955   0.69296   0.00000  Uiso   1.00
H29    H     0.76918   0.42492   0.83659   0.00000  Uiso   1.00
H30    H     0.79792   0.36969   0.70745   0.00000  Uiso   1.00
C24    C     0.02257   0.81980   0.08375   0.00000  Uiso   1.00
C25    C     0.30349   0.89421   0.23320   0.00000  Uiso   1.00
C26    C     0.34308   0.96057   0.25817   0.00000  Uiso   1.00
B4     B     0.24697   0.85335   0.28262   0.00000  Uiso   1.00
O7     O     0.23977   0.82020   0.24744   0.00000  Uiso   1.00
C27    C     0.31767   0.95931   0.29761   0.00000  Uiso   1.00
C28    C     0.28038   0.89211   0.27354   0.00000  Uiso   1.00
C29    C     0.28731   0.92518   0.30550   0.00000  Uiso   1.00
O8     O     0.22541   0.85085   0.32647   0.00000  Uiso   1.00
C30    C     0.25543   0.73219   0.18027   0.00000  Uiso   1.00
C31    C     0.13501   0.91188   0.34551   0.00000  Uiso   1.00
H31    H     0.27630   0.71115   0.15825   0.00000  Uiso   1.00
H32    H     0.22039   0.72095   0.17716   0.00000  Uiso   1.00
H33    H     0.25766   0.76707   0.16833   0.00000  Uiso   1.00
H34    H     0.11387   0.93388   0.36632   0.00000  Uiso   1.00
H35    H     0.16911   0.92603   0.34472   0.00000  Uiso   1.00
H36    H     0.12153   0.91206   0.31114   0.00000  Uiso   1.00
H37    H     0.32173   0.98481   0.32266   0.00000  Uiso   1.00
H38    H     0.34941   0.92955   0.19296   0.00000  Uiso   1.00
H39    H     0.26918   0.92492   0.33659   0.00000  Uiso   1.00
H40    H     0.29792   0.86969   0.20745   0.00000  Uiso   1.00
C32    C     0.52257   0.31980   0.58375   0.00000  Uiso   1.00
C33    C     0.30349   0.10579   0.26680   0.00000  Uiso   1.00
C34    C     0.34308   0.03943   0.24183   0.00000  Uiso   1.00
B5     B     0.24697   0.14665   0.21738   0.00000  Uiso   1.00
O9     O     0.23977   0.17980   0.25256   0.00000  Uiso   1.00
C35    C     0.31767   0.04069   0.20239   0.00000  Uiso   1.00
C36    C     0.28038   0.10789   0.22646   0.00000  Uiso   1.00
C37    C     0.28731   0.07482   0.19450   0.00000  Uiso   1.00
O10    O     0.22541   0.14915   0.17353   0.00000  Uiso   1.00
C38    C     0.25543   0.26781   0.31973   0.00000  Uiso   1.00
C39    C     0.13501   0.08812   0.15449   0.00000  Uiso   1.00
H41    H     0.27630   0.28885   0.34175   0.00000  Uiso   1.00
H42    H     0.22039   0.27905   0.32284   0.00000  Uiso   1.00
H43    H     0.25766   0.23293   0.33167   0.00000  Uiso   1.00
H44    H     0.11387   0.06612   0.13368   0.00000  Uiso   1.00
H45    H     0.16911   0.07397   0.15528   0.00000  Uiso   1.00
H46    H     0.12153   0.08794   0.18886   0.00000  Uiso   1.00
H47    H     0.32173   0.01519   0.17734   0.00000  Uiso   1.00
H48    H     0.34941   0.07045   0.30704   0.00000  Uiso   1.00
H49    H     0.26918   0.07508   0.16341   0.00000  Uiso   1.00
H50    H     0.29792   0.13031   0.29255   0.00000  Uiso   1.00
C40    C     0.52257   0.68020   0.91625   0.00000  Uiso   1.00
C41    C     0.80349   0.60579   0.76680   0.00000  Uiso   1.00
C42    C     0.84308   0.53943   0.74183   0.00000  Uiso   1.00
B6     B     0.74697   0.64665   0.71738   0.00000  Uiso   1.00
O11    O     0.73977   0.67980   0.75256   0.00000  Uiso   1.00
C43    C     0.81767   0.54069   0.70239   0.00000  Uiso   1.00
C44    C     0.78038   0.60789   0.72646   0.00000  Uiso   1.00
C45    C     0.78731   0.57482   0.69450   0.00000  Uiso   1.00
O12    O     0.72541   0.64915   0.67353   0.00000  Uiso   1.00
C46    C     0.75543   0.76781   0.81973   0.00000  Uiso   1.00
C47    C     0.63501   0.58812   0.65449   0.00000  Uiso   1.00
H51    H     0.77630   0.78885   0.84175   0.00000  Uiso   1.00
H52    H     0.72039   0.77905   0.82284   0.00000  Uiso   1.00
H53    H     0.75766   0.73293   0.83167   0.00000  Uiso   1.00
H54    H     0.61387   0.56612   0.63368   0.00000  Uiso   1.00
H55    H     0.66911   0.57397   0.65528   0.00000  Uiso   1.00
H56    H     0.62153   0.58794   0.68886   0.00000  Uiso   1.00
H57    H     0.82173   0.51519   0.67734   0.00000  Uiso   1.00
H58    H     0.84941   0.57045   0.80704   0.00000  Uiso   1.00
H59    H     0.76918   0.57508   0.66341   0.00000  Uiso   1.00
H60    H     0.79792   0.63031   0.79255   0.00000  Uiso   1.00
C48    C     0.02257   0.18020   0.41625   0.00000  Uiso   1.00
C49    C     0.19651   0.89421   0.76680   0.00000  Uiso   1.00
C50    C     0.15692   0.96057   0.74183   0.00000  Uiso   1.00
B7     B     0.25303   0.85335   0.71738   0.00000  Uiso   1.00
O13    O     0.26023   0.82020   0.75256   0.00000  Uiso   1.00
C51    C     0.18233   0.95931   0.70239   0.00000  Uiso   1.00
C52    C     0.21962   0.89211   0.72646   0.00000  Uiso   1.00
C53    C     0.21269   0.92518   0.69450   0.00000  Uiso   1.00
O14    O     0.27459   0.85085   0.67353   0.00000  Uiso   1.00
C54    C     0.24457   0.73219   0.81973   0.00000  Uiso   1.00
C55    C     0.36499   0.91188   0.65449   0.00000  Uiso   1.00
H61    H     0.22370   0.71115   0.84175   0.00000  Uiso   1.00
H62    H     0.27961   0.72095   0.82284   0.00000  Uiso   1.00
H63    H     0.24234   0.76707   0.83167   0.00000  Uiso   1.00
H64    H     0.38613   0.93388   0.63368   0.00000  Uiso   1.00
H65    H     0.33089   0.92603   0.65528   0.00000  Uiso   1.00
H66    H     0.37847   0.91206   0.68886   0.00000  Uiso   1.00
H67    H     0.17827   0.98481   0.67734   0.00000  Uiso   1.00
H68    H     0.15059   0.92955   0.80704   0.00000  Uiso   1.00
H69    H     0.23082   0.92492   0.66341   0.00000  Uiso   1.00
H70    H     0.20208   0.86969   0.79255   0.00000  Uiso   1.00
C56    C     0.97743   0.31980   0.41625   0.00000  Uiso   1.00
C57    C     0.69651   0.39421   0.26680   0.00000  Uiso   1.00
C58    C     0.65692   0.46057   0.24183   0.00000  Uiso   1.00
B8     B     0.75303   0.35335   0.21738   0.00000  Uiso   1.00
O15    O     0.76023   0.32020   0.25256   0.00000  Uiso   1.00
C59    C     0.68233   0.45931   0.20239   0.00000  Uiso   1.00
C60    C     0.71962   0.39211   0.22646   0.00000  Uiso   1.00
C61    C     0.71269   0.42518   0.19450   0.00000  Uiso   1.00
O16    O     0.77459   0.35085   0.17353   0.00000  Uiso   1.00
C62    C     0.74457   0.23219   0.31973   0.00000  Uiso   1.00
C63    C     0.86499   0.41188   0.15449   0.00000  Uiso   1.00
H71    H     0.72370   0.21115   0.34175   0.00000  Uiso   1.00
H72    H     0.77961   0.22095   0.32284   0.00000  Uiso   1.00
H73    H     0.74234   0.26707   0.33167   0.00000  Uiso   1.00
H74    H     0.88613   0.43388   0.13368   0.00000  Uiso   1.00
H75    H     0.83089   0.42603   0.15528   0.00000  Uiso   1.00
H76    H     0.87847   0.41206   0.18886   0.00000  Uiso   1.00
H77    H     0.67827   0.48481   0.17734   0.00000  Uiso   1.00
H78    H     0.65059   0.42955   0.30704   0.00000  Uiso   1.00
H79    H     0.73082   0.42492   0.16341   0.00000  Uiso   1.00
H80    H     0.70208   0.36969   0.29255   0.00000  Uiso   1.00
C64    C     0.47743   0.81980   0.91625   0.00000  Uiso   1.00
C65    C     0.23320   0.69651   0.60579   0.00000  Uiso   1.00
C66    C     0.25817   0.65692   0.53943   0.00000  Uiso   1.00
B9     B     0.28262   0.75303   0.64665   0.00000  Uiso   1.00
O17    O     0.24744   0.76023   0.67980   0.00000  Uiso   1.00
C67    C     0.29761   0.68233   0.54069   0.00000  Uiso   1.00
C68    C     0.27354   0.71962   0.60789   0.00000  Uiso   1.00
C69    C     0.30550   0.71269   0.57482   0.00000  Uiso   1.00
O18    O     0.32647   0.77459   0.64915   0.00000  Uiso   1.00
C70    C     0.18027   0.74457   0.76781   0.00000  Uiso   1.00
C71    C     0.34551   0.86499   0.58812   0.00000  Uiso   1.00
H81    H     0.15825   0.72370   0.78885   0.00000  Uiso   1.00
H82    H     0.17716   0.77961   0.77905   0.00000  Uiso   1.00
H83    H     0.16833   0.74234   0.73293   0.00000  Uiso   1.00
H84    H     0.36632   0.88613   0.56612   0.00000  Uiso   1.00
H85    H     0.34472   0.83089   0.57397   0.00000  Uiso   1.00
H86    H     0.31114   0.87847   0.58794   0.00000  Uiso   1.00
H87    H     0.32266   0.67827   0.51519   0.00000  Uiso   1.00
H88    H     0.19296   0.65059   0.57045   0.00000  Uiso   1.00
H89    H     0.33659   0.73082   0.57508   0.00000  Uiso   1.00
H90    H     0.20745   0.70208   0.63031   0.00000  Uiso   1.00
C72    C     0.58375   0.47743   0.18020   0.00000  Uiso   1.00
C73    C     0.73320   0.19651   0.10579   0.00000  Uiso   1.00
C74    C     0.75817   0.15692   0.03943   0.00000  Uiso   1.00
B10    B     0.78262   0.25303   0.14665   0.00000  Uiso   1.00
O19    O     0.74744   0.26023   0.17980   0.00000  Uiso   1.00
C75    C     0.79761   0.18233   0.04069   0.00000  Uiso   1.00
C76    C     0.77354   0.21962   0.10789   0.00000  Uiso   1.00
C77    C     0.80550   0.21269   0.07482   0.00000  Uiso   1.00
O20    O     0.82647   0.27459   0.14915   0.00000  Uiso   1.00
C78    C     0.68027   0.24457   0.26781   0.00000  Uiso   1.00
C79    C     0.84551   0.36499   0.08812   0.00000  Uiso   1.00
H91    H     0.65825   0.22370   0.28885   0.00000  Uiso   1.00
H92    H     0.67716   0.27961   0.27905   0.00000  Uiso   1.00
H93    H     0.66833   0.24234   0.23293   0.00000  Uiso   1.00
H94    H     0.86632   0.38613   0.06612   0.00000  Uiso   1.00
H95    H     0.84472   0.33089   0.07397   0.00000  Uiso   1.00
H96    H     0.81114   0.37847   0.08794   0.00000  Uiso   1.00
H97    H     0.82266   0.17827   0.01519   0.00000  Uiso   1.00
H98    H     0.69296   0.15059   0.07045   0.00000  Uiso   1.00
H99    H     0.83659   0.23082   0.07508   0.00000  Uiso   1.00
H100   H     0.70745   0.20208   0.13031   0.00000  Uiso   1.00
C80    C     0.08375   0.97743   0.68020   0.00000  Uiso   1.00
C81    C     0.73320   0.80349   0.39421   0.00000  Uiso   1.00
C82    C     0.75817   0.84308   0.46057   0.00000  Uiso   1.00
B11    B     0.78262   0.74697   0.35335   0.00000  Uiso   1.00
O21    O     0.74744   0.73977   0.32020   0.00000  Uiso   1.00
C83    C     0.79761   0.81767   0.45931   0.00000  Uiso   1.00
C84    C     0.77354   0.78038   0.39211   0.00000  Uiso   1.00
C85    C     0.80550   0.78731   0.42518   0.00000  Uiso   1.00
O22    O     0.82647   0.72541   0.35085   0.00000  Uiso   1.00
C86    C     0.68027   0.75543   0.23219   0.00000  Uiso   1.00
C87    C     0.84551   0.63501   0.41188   0.00000  Uiso   1.00
H101   H     0.65825   0.77630   0.21115   0.00000  Uiso   1.00
H102   H     0.67716   0.72039   0.22095   0.00000  Uiso   1.00
H103   H     0.66833   0.75766   0.26707   0.00000  Uiso   1.00
H104   H     0.86632   0.61387   0.43388   0.00000  Uiso   1.00
H105   H     0.84472   0.66911   0.42603   0.00000  Uiso   1.00
H106   H     0.81114   0.62153   0.41206   0.00000  Uiso   1.00
H107   H     0.82266   0.82173   0.48481   0.00000  Uiso   1.00
H108   H     0.69296   0.84941   0.42955   0.00000  Uiso   1.00
H109   H     0.83659   0.76918   0.42492   0.00000  Uiso   1.00
H110   H     0.70745   0.79792   0.36969   0.00000  Uiso   1.00
C88    C     0.08375   0.02257   0.81980   0.00000  Uiso   1.00
C89    C     0.23320   0.30349   0.89421   0.00000  Uiso   1.00
C90    C     0.25817   0.34308   0.96057   0.00000  Uiso   1.00
B12    B     0.28262   0.24697   0.85335   0.00000  Uiso   1.00
O23    O     0.24744   0.23977   0.82020   0.00000  Uiso   1.00
C91    C     0.29761   0.31767   0.95931   0.00000  Uiso   1.00
C92    C     0.27354   0.28038   0.89211   0.00000  Uiso   1.00
C93    C     0.30550   0.28731   0.92518   0.00000  Uiso   1.00
O24    O     0.32647   0.22541   0.85085   0.00000  Uiso   1.00
C94    C     0.18027   0.25543   0.73219   0.00000  Uiso   1.00
C95    C     0.34551   0.13501   0.91188   0.00000  Uiso   1.00
H111   H     0.15825   0.27630   0.71115   0.00000  Uiso   1.00
H112   H     0.17716   0.22039   0.72095   0.00000  Uiso   1.00
H113   H     0.16833   0.25766   0.76707   0.00000  Uiso   1.00
H114   H     0.36632   0.11387   0.93388   0.00000  Uiso   1.00
H115   H     0.34472   0.16911   0.92603   0.00000  Uiso   1.00
H116   H     0.31114   0.12153   0.91206   0.00000  Uiso   1.00
H117   H     0.32266   0.32173   0.98481   0.00000  Uiso   1.00
H118   H     0.19296   0.34941   0.92955   0.00000  Uiso   1.00
H119   H     0.33659   0.26918   0.92492   0.00000  Uiso   1.00
H120   H     0.20745   0.29792   0.86969   0.00000  Uiso   1.00
C96    C     0.58375   0.52257   0.31980   0.00000  Uiso   1.00
C97    C     0.26680   0.30349   0.10579   0.00000  Uiso   1.00
C98    C     0.24183   0.34308   0.03943   0.00000  Uiso   1.00
B13    B     0.21738   0.24697   0.14665   0.00000  Uiso   1.00
O25    O     0.25256   0.23977   0.17980   0.00000  Uiso   1.00
C99    C     0.20239   0.31767   0.04069   0.00000  Uiso   1.00
C100   C     0.22646   0.28038   0.10789   0.00000  Uiso   1.00
C101   C     0.19450   0.28731   0.07482   0.00000  Uiso   1.00
O26    O     0.17353   0.22541   0.14915   0.00000  Uiso   1.00
C102   C     0.31973   0.25543   0.26781   0.00000  Uiso   1.00
C103   C     0.15449   0.13501   0.08812   0.00000  Uiso   1.00
H121   H     0.34175   0.27630   0.28885   0.00000  Uiso   1.00
H122   H     0.32284   0.22039   0.27905   0.00000  Uiso   1.00
H123   H     0.33167   0.25766   0.23293   0.00000  Uiso   1.00
H124   H     0.13368   0.11387   0.06612   0.00000  Uiso   1.00
H125   H     0.15528   0.16911   0.07397   0.00000  Uiso   1.00
H126   H     0.18886   0.12153   0.08794   0.00000  Uiso   1.00
H127   H     0.17734   0.32173   0.01519   0.00000  Uiso   1.00
H128   H     0.30704   0.34941   0.07045   0.00000  Uiso   1.00
H129   H     0.16341   0.26918   0.07508   0.00000  Uiso   1.00
H130   H     0.29255   0.29792   0.13031   0.00000  Uiso   1.00
C104   C     0.91625   0.52257   0.68020   0.00000  Uiso   1.00
C105   C     0.76680   0.80349   0.60579   0.00000  Uiso   1.00
C106   C     0.74183   0.84308   0.53943   0.00000  Uiso   1.00
B14    B     0.71738   0.74697   0.64665   0.00000  Uiso   1.00
O27    O     0.75256   0.73977   0.67980   0.00000  Uiso   1.00
C107   C     0.70239   0.81767   0.54069   0.00000  Uiso   1.00
C108   C     0.72646   0.78038   0.60789   0.00000  Uiso   1.00
C109   C     0.69450   0.78731   0.57482   0.00000  Uiso   1.00
O28    O     0.67353   0.72541   0.64915   0.00000  Uiso   1.00
C110   C     0.81973   0.75543   0.76781   0.00000  Uiso   1.00
C111   C     0.65449   0.63501   0.58812   0.00000  Uiso   1.00
H131   H     0.84175   0.77630   0.78885   0.00000  Uiso   1.00
H132   H     0.82284   0.72039   0.77905   0.00000  Uiso   1.00
H133   H     0.83167   0.75766   0.73293   0.00000  Uiso   1.00
H134   H     0.63368   0.61387   0.56612   0.00000  Uiso   1.00
H135   H     0.65528   0.66911   0.57397   0.00000  Uiso   1.00
H136   H     0.68886   0.62153   0.58794   0.00000  Uiso   1.00
H137   H     0.67734   0.82173   0.51519   0.00000  Uiso   1.00
H138   H     0.80704   0.84941   0.57045   0.00000  Uiso   1.00
H139   H     0.66341   0.76918   0.57508   0.00000  Uiso   1.00
H140   H     0.79255   0.79792   0.63031   0.00000  Uiso   1.00
C112   C     0.41625   0.02257   0.18020   0.00000  Uiso   1.00
C113   C     0.76680   0.19651   0.89421   0.00000  Uiso   1.00
C114   C     0.74183   0.15692   0.96057   0.00000  Uiso   1.00
B15    B     0.71738   0.25303   0.85335   0.00000  Uiso   1.00
O29    O     0.75256   0.26023   0.82020   0.00000  Uiso   1.00
C115   C     0.70239   0.18233   0.95931   0.00000  Uiso   1.00
C116   C     0.72646   0.21962   0.89211   0.00000  Uiso   1.00
C117   C     0.69450   0.21269   0.92518   0.00000  Uiso   1.00
O30    O     0.67353   0.27459   0.85085   0.00000  Uiso   1.00
C118   C     0.81973   0.24457   0.73219   0.00000  Uiso   1.00
C119   C     0.65449   0.36499   0.91188   0.00000  Uiso   1.00
H141   H     0.84175   0.22370   0.71115   0.00000  Uiso   1.00
H142   H     0.82284   0.27961   0.72095   0.00000  Uiso   1.00
H143   H     0.83167   0.24234   0.76707   0.00000  Uiso   1.00
H144   H     0.63368   0.38613   0.93388   0.00000  Uiso   1.00
H145   H     0.65528   0.33089   0.92603   0.00000  Uiso   1.00
H146   H     0.68886   0.37847   0.91206   0.00000  Uiso   1.00
H147   H     0.67734   0.17827   0.98481   0.00000  Uiso   1.00
H148   H     0.80704   0.15059   0.92955   0.00000  Uiso   1.00
H149   H     0.66341   0.23082   0.92492   0.00000  Uiso   1.00
H150   H     0.79255   0.20208   0.86969   0.00000  Uiso   1.00
C120   C     0.41625   0.97743   0.31980   0.00000  Uiso   1.00
C121   C     0.26680   0.69651   0.39421   0.00000  Uiso   1.00
C122   C     0.24183   0.65692   0.46057   0.00000  Uiso   1.00
B16    B     0.21738   0.75303   0.35335   0.00000  Uiso   1.00
O31    O     0.25256   0.76023   0.32020   0.00000  Uiso   1.00
C123   C     0.20239   0.68233   0.45931   0.00000  Uiso   1.00
C124   C     0.22646   0.71962   0.39211   0.00000  Uiso   1.00
C125   C     0.19450   0.71269   0.42518   0.00000  Uiso   1.00
O32    O     0.17353   0.77459   0.35085   0.00000  Uiso   1.00
C126   C     0.31973   0.74457   0.23219   0.00000  Uiso   1.00
C127   C     0.15449   0.86499   0.41188   0.00000  Uiso   1.00
H151   H     0.34175   0.72370   0.21115   0.00000  Uiso   1.00
H152   H     0.32284   0.77961   0.22095   0.00000  Uiso   1.00
H153   H     0.33167   0.74234   0.26707   0.00000  Uiso   1.00
H154   H     0.13368   0.88613   0.43388   0.00000  Uiso   1.00
H155   H     0.15528   0.83089   0.42603   0.00000  Uiso   1.00
H156   H     0.18886   0.87847   0.41206   0.00000  Uiso   1.00
H157   H     0.17734   0.67827   0.48481   0.00000  Uiso   1.00
H158   H     0.30704   0.65059   0.42955   0.00000  Uiso   1.00
H159   H     0.16341   0.73082   0.42492   0.00000  Uiso   1.00
H160   H     0.29255   0.70208   0.36969   0.00000  Uiso   1.00
C128   C     0.91625   0.47743   0.81980   0.00000  Uiso   1.00
C129   C     0.60579   0.23320   0.69651   0.00000  Uiso   1.00
C130   C     0.53943   0.25817   0.65692   0.00000  Uiso   1.00
B17    B     0.64665   0.28262   0.75303   0.00000  Uiso   1.00
O33    O     0.67980   0.24744   0.76023   0.00000  Uiso   1.00
C131   C     0.54069   0.29761   0.68233   0.00000  Uiso   1.00
C132   C     0.60789   0.27354   0.71962   0.00000  Uiso   1.00
C133   C     0.57482   0.30550   0.71269   0.00000  Uiso   1.00
O34    O     0.64915   0.32647   0.77459   0.00000  Uiso   1.00
C134   C     0.76781   0.18027   0.74457   0.00000  Uiso   1.00
C135   C     0.58812   0.34551   0.86499   0.00000  Uiso   1.00
H161   H     0.78885   0.15825   0.72370   0.00000  Uiso   1.00
H162   H     0.77905   0.17716   0.77961   0.00000  Uiso   1.00
H163   H     0.73293   0.16833   0.74234   0.00000  Uiso   1.00
H164   H     0.56612   0.36632   0.88613   0.00000  Uiso   1.00
H165   H     0.57397   0.34472   0.83089   0.00000  Uiso   1.00
H166   H     0.58794   0.31114   0.87847   0.00000  Uiso   1.00
H167   H     0.51519   0.32266   0.67827   0.00000  Uiso   1.00
H168   H     0.57045   0.19296   0.65059   0.00000  Uiso   1.00
H169   H     0.57508   0.33659   0.73082   0.00000  Uiso   1.00
H170   H     0.63031   0.20745   0.70208   0.00000  Uiso   1.00
C136   C     0.18020   0.58375   0.47743   0.00000  Uiso   1.00
C137   C     0.10579   0.73320   0.19651   0.00000  Uiso   1.00
C138   C     0.03943   0.75817   0.15692   0.00000  Uiso   1.00
B18    B     0.14665   0.78262   0.25303   0.00000  Uiso   1.00
O35    O     0.17980   0.74744   0.26023   0.00000  Uiso   1.00
C139   C     0.04069   0.79761   0.18233   0.00000  Uiso   1.00
C140   C     0.10789   0.77354   0.21962   0.00000  Uiso   1.00
C141   C     0.07482   0.80550   0.21269   0.00000  Uiso   1.00
O36    O     0.14915   0.82647   0.27459   0.00000  Uiso   1.00
C142   C     0.26781   0.68027   0.24457   0.00000  Uiso   1.00
C143   C     0.08812   0.84551   0.36499   0.00000  Uiso   1.00
H171   H     0.28885   0.65825   0.22370   0.00000  Uiso   1.00
H172   H     0.27905   0.67716   0.27961   0.00000  Uiso   1.00
H173   H     0.23293   0.66833   0.24234   0.00000  Uiso   1.00
H174   H     0.06612   0.86632   0.38613   0.00000  Uiso   1.00
H175   H     0.07397   0.84472   0.33089   0.00000  Uiso   1.00
H176   H     0.08794   0.81114   0.37847   0.00000  Uiso   1.00
H177   H     0.01519   0.82266   0.17827   0.00000  Uiso   1.00
H178   H     0.07045   0.69296   0.15059   0.00000  Uiso   1.00
H179   H     0.07508   0.83659   0.23082   0.00000  Uiso   1.00
H180   H     0.13031   0.70745   0.20208   0.00000  Uiso   1.00
C144   C     0.68020   0.08375   0.97743   0.00000  Uiso   1.00
C145   C     0.39421   0.73320   0.80349   0.00000  Uiso   1.00
C146   C     0.46057   0.75817   0.84308   0.00000  Uiso   1.00
B19    B     0.35335   0.78262   0.74697   0.00000  Uiso   1.00
O37    O     0.32020   0.74744   0.73977   0.00000  Uiso   1.00
C147   C     0.45931   0.79761   0.81767   0.00000  Uiso   1.00
C148   C     0.39211   0.77354   0.78038   0.00000  Uiso   1.00
C149   C     0.42518   0.80550   0.78731   0.00000  Uiso   1.00
O38    O     0.35085   0.82647   0.72541   0.00000  Uiso   1.00
C150   C     0.23219   0.68027   0.75543   0.00000  Uiso   1.00
C151   C     0.41188   0.84551   0.63501   0.00000  Uiso   1.00
H181   H     0.21115   0.65825   0.77630   0.00000  Uiso   1.00
H182   H     0.22095   0.67716   0.72039   0.00000  Uiso   1.00
H183   H     0.26707   0.66833   0.75766   0.00000  Uiso   1.00
H184   H     0.43388   0.86632   0.61387   0.00000  Uiso   1.00
H185   H     0.42603   0.84472   0.66911   0.00000  Uiso   1.00
H186   H     0.41206   0.81114   0.62153   0.00000  Uiso   1.00
H187   H     0.48481   0.82266   0.82173   0.00000  Uiso   1.00
H188   H     0.42955   0.69296   0.84941   0.00000  Uiso   1.00
H189   H     0.42492   0.83659   0.76918   0.00000  Uiso   1.00
H190   H     0.36969   0.70745   0.79792   0.00000  Uiso   1.00
C152   C     0.81980   0.08375   0.02257   0.00000  Uiso   1.00
C153   C     0.89421   0.23320   0.30349   0.00000  Uiso   1.00
C154   C     0.96057   0.25817   0.34308   0.00000  Uiso   1.00
B20    B     0.85335   0.28262   0.24697   0.00000  Uiso   1.00
O39    O     0.82020   0.24744   0.23977   0.00000  Uiso   1.00
C155   C     0.95931   0.29761   0.31767   0.00000  Uiso   1.00
C156   C     0.89211   0.27354   0.28038   0.00000  Uiso   1.00
C157   C     0.92518   0.30550   0.28731   0.00000  Uiso   1.00
O40    O     0.85085   0.32647   0.22541   0.00000  Uiso   1.00
C158   C     0.73219   0.18027   0.25543   0.00000  Uiso   1.00
C159   C     0.91188   0.34551   0.13501   0.00000  Uiso   1.00
H191   H     0.71115   0.15825   0.27630   0.00000  Uiso   1.00
H192   H     0.72095   0.17716   0.22039   0.00000  Uiso   1.00
H193   H     0.76707   0.16833   0.25766   0.00000  Uiso   1.00
H194   H     0.93388   0.36632   0.11387   0.00000  Uiso   1.00
H195   H     0.92603   0.34472   0.16911   0.00000  Uiso   1.00
H196   H     0.91206   0.31114   0.12153   0.00000  Uiso   1.00
H197   H     0.98481   0.32266   0.32173   0.00000  Uiso   1.00
H198   H     0.92955   0.19296   0.34941   0.00000  Uiso   1.00
H199   H     0.92492   0.33659   0.26918   0.00000  Uiso   1.00
H200   H     0.86969   0.20745   0.29792   0.00000  Uiso   1.00
C160   C     0.31980   0.58375   0.52257   0.00000  Uiso   1.00
C161   C     0.10579   0.26680   0.30349   0.00000  Uiso   1.00
C162   C     0.03943   0.24183   0.34308   0.00000  Uiso   1.00
B21    B     0.14665   0.21738   0.24697   0.00000  Uiso   1.00
O41    O     0.17980   0.25256   0.23977   0.00000  Uiso   1.00
C163   C     0.04069   0.20239   0.31767   0.00000  Uiso   1.00
C164   C     0.10789   0.22646   0.28038   0.00000  Uiso   1.00
C165   C     0.07482   0.19450   0.28731   0.00000  Uiso   1.00
O42    O     0.14915   0.17353   0.22541   0.00000  Uiso   1.00
C166   C     0.26781   0.31973   0.25543   0.00000  Uiso   1.00
C167   C     0.08812   0.15449   0.13501   0.00000  Uiso   1.00
H201   H     0.28885   0.34175   0.27630   0.00000  Uiso   1.00
H202   H     0.27905   0.32284   0.22039   0.00000  Uiso   1.00
H203   H     0.23293   0.33167   0.25766   0.00000  Uiso   1.00
H204   H     0.06612   0.13368   0.11387   0.00000  Uiso   1.00
H205   H     0.07397   0.15528   0.16911   0.00000  Uiso   1.00
H206   H     0.08794   0.18886   0.12153   0.00000  Uiso   1.00
H207   H     0.01519   0.17734   0.32173   0.00000  Uiso   1.00
H208   H     0.07045   0.30704   0.34941   0.00000  Uiso   1.00
H209   H     0.07508   0.16341   0.26918   0.00000  Uiso   1.00
H210   H     0.13031   0.29255   0.29792   0.00000  Uiso   1.00
C168   C     0.68020   0.91625   0.52257   0.00000  Uiso   1.00
C169   C     0.60579   0.76680   0.80349   0.00000  Uiso   1.00
C170   C     0.53943   0.74183   0.84308   0.00000  Uiso   1.00
B22    B     0.64665   0.71738   0.74697   0.00000  Uiso   1.00
O43    O     0.67980   0.75256   0.73977   0.00000  Uiso   1.00
C171   C     0.54069   0.70239   0.81767   0.00000  Uiso   1.00
C172   C     0.60789   0.72646   0.78038   0.00000  Uiso   1.00
C173   C     0.57482   0.69450   0.78731   0.00000  Uiso   1.00
O44    O     0.64915   0.67353   0.72541   0.00000  Uiso   1.00
C174   C     0.76781   0.81973   0.75543   0.00000  Uiso   1.00
C175   C     0.58812   0.65449   0.63501   0.00000  Uiso   1.00
H211   H     0.78885   0.84175   0.77630   0.00000  Uiso   1.00
H212   H     0.77905   0.82284   0.72039   0.00000  Uiso   1.00
H213   H     0.73293   0.83167   0.75766   0.00000  Uiso   1.00
H214   H     0.56612   0.63368   0.61387   0.00000  Uiso   1.00
H215   H     0.57397   0.65528   0.66911   0.00000  Uiso   1.00
H216   H     0.58794   0.68886   0.62153   0.00000  Uiso   1.00
H217   H     0.51519   0.67734   0.82173   0.00000  Uiso   1.00
H218   H     0.57045   0.80704   0.84941   0.00000  Uiso   1.00
H219   H     0.57508   0.66341   0.76918   0.00000  Uiso   1.00
H220   H     0.63031   0.79255   0.79792   0.00000  Uiso   1.00
C176   C     0.18020   0.41625   0.02257   0.00000  Uiso   1.00
C177   C     0.89421   0.76680   0.19651   0.00000  Uiso   1.00
C178   C     0.96057   0.74183   0.15692   0.00000  Uiso   1.00
B23    B     0.85335   0.71738   0.25303   0.00000  Uiso   1.00
O45    O     0.82020   0.75256   0.26023   0.00000  Uiso   1.00
C179   C     0.95931   0.70239   0.18233   0.00000  Uiso   1.00
C180   C     0.89211   0.72646   0.21962   0.00000  Uiso   1.00
C181   C     0.92518   0.69450   0.21269   0.00000  Uiso   1.00
O46    O     0.85085   0.67353   0.27459   0.00000  Uiso   1.00
C182   C     0.73219   0.81973   0.24457   0.00000  Uiso   1.00
C183   C     0.91188   0.65449   0.36499   0.00000  Uiso   1.00
H221   H     0.71115   0.84175   0.22370   0.00000  Uiso   1.00
H222   H     0.72095   0.82284   0.27961   0.00000  Uiso   1.00
H223   H     0.76707   0.83167   0.24234   0.00000  Uiso   1.00
H224   H     0.93388   0.63368   0.38613   0.00000  Uiso   1.00
H225   H     0.92603   0.65528   0.33089   0.00000  Uiso   1.00
H226   H     0.91206   0.68886   0.37847   0.00000  Uiso   1.00
H227   H     0.98481   0.67734   0.17827   0.00000  Uiso   1.00
H228   H     0.92955   0.80704   0.15059   0.00000  Uiso   1.00
H229   H     0.92492   0.66341   0.23082   0.00000  Uiso   1.00
H230   H     0.86969   0.79255   0.20208   0.00000  Uiso   1.00
C184   C     0.31980   0.41625   0.97743   0.00000  Uiso   1.00
C185   C     0.39421   0.26680   0.69651   0.00000  Uiso   1.00
C186   C     0.46057   0.24183   0.65692   0.00000  Uiso   1.00
B24    B     0.35335   0.21738   0.75303   0.00000  Uiso   1.00
O47    O     0.32020   0.25256   0.76023   0.00000  Uiso   1.00
C187   C     0.45931   0.20239   0.68233   0.00000  Uiso   1.00
C188   C     0.39211   0.22646   0.71962   0.00000  Uiso   1.00
C189   C     0.42518   0.19450   0.71269   0.00000  Uiso   1.00
O48    O     0.35085   0.17353   0.77459   0.00000  Uiso   1.00
C190   C     0.23219   0.31973   0.74457   0.00000  Uiso   1.00
C191   C     0.41188   0.15449   0.86499   0.00000  Uiso   1.00
H231   H     0.21115   0.34175   0.72370   0.00000  Uiso   1.00
H232   H     0.22095   0.32284   0.77961   0.00000  Uiso   1.00
H233   H     0.26707   0.33167   0.74234   0.00000  Uiso   1.00
H234   H     0.43388   0.13368   0.88613   0.00000  Uiso   1.00
H235   H     0.42603   0.15528   0.83089   0.00000  Uiso   1.00
H236   H     0.41206   0.18886   0.87847   0.00000  Uiso   1.00
H237   H     0.48481   0.17734   0.67827   0.00000  Uiso   1.00
H238   H     0.42955   0.30704   0.65059   0.00000  Uiso   1.00
H239   H     0.42492   0.16341   0.73082   0.00000  Uiso   1.00
H240   H     0.36969   0.29255   0.70208   0.00000  Uiso   1.00
C192   C     0.81980   0.91625   0.47743   0.00000  Uiso   1.00
C193   C     0.85579   0.94651   0.48320   0.00000  Uiso   1.00
C194   C     0.78943   0.90692   0.50817   0.00000  Uiso   1.00
B25    B     0.89665   0.00303   0.53262   0.00000  Uiso   1.00
O49    O     0.92980   0.01023   0.49744   0.00000  Uiso   1.00
C195   C     0.79069   0.93233   0.54761   0.00000  Uiso   1.00
C196   C     0.85789   0.96962   0.52354   0.00000  Uiso   1.00
C197   C     0.82482   0.96269   0.55550   0.00000  Uiso   1.00
O50    O     0.89915   0.02459   0.57647   0.00000  Uiso   1.00
C198   C     0.01781   0.99457   0.43027   0.00000  Uiso   1.00
C199   C     0.83812   0.11499   0.59551   0.00000  Uiso   1.00
H241   H     0.03885   0.97370   0.40825   0.00000  Uiso   1.00
H242   H     0.02905   0.02961   0.42716   0.00000  Uiso   1.00
H243   H     0.98293   0.99234   0.41833   0.00000  Uiso   1.00
H244   H     0.81612   0.13613   0.61632   0.00000  Uiso   1.00
H245   H     0.82397   0.08089   0.59472   0.00000  Uiso   1.00
H246   H     0.83794   0.12847   0.56114   0.00000  Uiso   1.00
H247   H     0.76519   0.92827   0.57266   0.00000  Uiso   1.00
H248   H     0.82045   0.90059   0.44296   0.00000  Uiso   1.00
H249   H     0.82508   0.98082   0.58659   0.00000  Uiso   1.00
H250   H     0.88031   0.95208   0.45745   0.00000  Uiso   1.00
C200   C     0.43020   0.72743   0.83375   0.00000  Uiso   1.00
C201   C     0.35579   0.44651   0.98320   0.00000  Uiso   1.00
C202   C     0.28943   0.40692   0.00817   0.00000  Uiso   1.00
B26    B     0.39665   0.50303   0.03262   0.00000  Uiso   1.00
O51    O     0.42980   0.51023   0.99744   0.00000  Uiso   1.00
C203   C     0.29069   0.43233   0.04761   0.00000  Uiso   1.00
C204   C     0.35789   0.46962   0.02354   0.00000  Uiso   1.00
C205   C     0.32482   0.46269   0.05550   0.00000  Uiso   1.00
O52    O     0.39915   0.52459   0.07647   0.00000  Uiso   1.00
C206   C     0.51781   0.49457   0.93027   0.00000  Uiso   1.00
C207   C     0.33812   0.61499   0.09551   0.00000  Uiso   1.00
H251   H     0.53885   0.47370   0.90825   0.00000  Uiso   1.00
H252   H     0.52905   0.52961   0.92716   0.00000  Uiso   1.00
H253   H     0.48293   0.49234   0.91833   0.00000  Uiso   1.00
H254   H     0.31612   0.63613   0.11632   0.00000  Uiso   1.00
H255   H     0.32397   0.58089   0.09472   0.00000  Uiso   1.00
H256   H     0.33794   0.62847   0.06114   0.00000  Uiso   1.00
H257   H     0.26519   0.42827   0.07266   0.00000  Uiso   1.00
H258   H     0.32045   0.40059   0.94296   0.00000  Uiso   1.00
H259   H     0.32508   0.48082   0.08659   0.00000  Uiso   1.00
H260   H     0.38031   0.45208   0.95745   0.00000  Uiso   1.00
C208   C     0.93020   0.22743   0.33375   0.00000  Uiso   1.00
C209   C     0.64421   0.05349   0.98320   0.00000  Uiso   1.00
C210   C     0.71057   0.09308   0.00817   0.00000  Uiso   1.00
B27    B     0.60335   0.99697   0.03262   0.00000  Uiso   1.00
O53    O     0.57020   0.98977   0.99744   0.00000  Uiso   1.00
C211   C     0.70931   0.06767   0.04761   0.00000  Uiso   1.00
C212   C     0.64211   0.03038   0.02354   0.00000  Uiso   1.00
C213   C     0.67518   0.03731   0.05550   0.00000  Uiso   1.00
O54    O     0.60085   0.97541   0.07647   0.00000  Uiso   1.00
C214   C     0.48219   0.00543   0.93027   0.00000  Uiso   1.00
C215   C     0.66188   0.88501   0.09551   0.00000  Uiso   1.00
H261   H     0.46115   0.02630   0.90825   0.00000  Uiso   1.00
H262   H     0.47095   0.97039   0.92716   0.00000  Uiso   1.00
H263   H     0.51707   0.00766   0.91833   0.00000  Uiso   1.00
H264   H     0.68388   0.86387   0.11632   0.00000  Uiso   1.00
H265   H     0.67603   0.91911   0.09472   0.00000  Uiso   1.00
H266   H     0.66206   0.87153   0.06114   0.00000  Uiso   1.00
H267   H     0.73481   0.07173   0.07266   0.00000  Uiso   1.00
H268   H     0.67955   0.09941   0.94296   0.00000  Uiso   1.00
H269   H     0.67492   0.01918   0.08659   0.00000  Uiso   1.00
H270   H     0.61969   0.04792   0.95745   0.00000  Uiso   1.00
C216   C     0.06980   0.27257   0.33375   0.00000  Uiso   1.00
C217   C     0.14421   0.55349   0.48320   0.00000  Uiso   1.00
C218   C     0.21057   0.59308   0.50817   0.00000  Uiso   1.00
B28    B     0.10335   0.49697   0.53262   0.00000  Uiso   1.00
O55    O     0.07020   0.48977   0.49744   0.00000  Uiso   1.00
C219   C     0.20931   0.56767   0.54761   0.00000  Uiso   1.00
C220   C     0.14211   0.53038   0.52354   0.00000  Uiso   1.00
C221   C     0.17518   0.53731   0.55550   0.00000  Uiso   1.00
O56    O     0.10085   0.47541   0.57647   0.00000  Uiso   1.00
C222   C     0.98219   0.50543   0.43027   0.00000  Uiso   1.00
C223   C     0.16188   0.38501   0.59551   0.00000  Uiso   1.00
H271   H     0.96115   0.52630   0.40825   0.00000  Uiso   1.00
H272   H     0.97095   0.47039   0.42716   0.00000  Uiso   1.00
H273   H     0.01707   0.50766   0.41833   0.00000  Uiso   1.00
H274   H     0.18388   0.36387   0.61632   0.00000  Uiso   1.00
H275   H     0.17603   0.41911   0.59472   0.00000  Uiso   1.00
H276   H     0.16206   0.37153   0.56114   0.00000  Uiso   1.00
H277   H     0.23481   0.57173   0.57266   0.00000  Uiso   1.00
H278   H     0.17955   0.59941   0.44296   0.00000  Uiso   1.00
H279   H     0.17492   0.51918   0.58659   0.00000  Uiso   1.00
H280   H     0.11969   0.54792   0.45745   0.00000  Uiso   1.00
C224   C     0.56980   0.77257   0.83375   0.00000  Uiso   1.00
C225   C     0.35579   0.55349   0.51680   0.00000  Uiso   1.00
C226   C     0.28943   0.59308   0.49183   0.00000  Uiso   1.00
B29    B     0.39665   0.49697   0.46738   0.00000  Uiso   1.00
O57    O     0.42980   0.48977   0.50256   0.00000  Uiso   1.00
C227   C     0.29069   0.56767   0.45239   0.00000  Uiso   1.00
C228   C     0.35789   0.53038   0.47646   0.00000  Uiso   1.00
C229   C     0.32482   0.53731   0.44450   0.00000  Uiso   1.00
O58    O     0.39915   0.47541   0.42353   0.00000  Uiso   1.00
C230   C     0.51781   0.50543   0.56973   0.00000  Uiso   1.00
C231   C     0.33812   0.38501   0.40449   0.00000  Uiso   1.00
H281   H     0.53885   0.52630   0.59175   0.00000  Uiso   1.00
H282   H     0.52905   0.47039   0.57284   0.00000  Uiso   1.00
H283   H     0.48293   0.50766   0.58167   0.00000  Uiso   1.00
H284   H     0.31612   0.36387   0.38368   0.00000  Uiso   1.00
H285   H     0.32397   0.41911   0.40528   0.00000  Uiso   1.00
H286   H     0.33794   0.37153   0.43886   0.00000  Uiso   1.00
H287   H     0.26519   0.57173   0.42734   0.00000  Uiso   1.00
H288   H     0.32045   0.59941   0.55704   0.00000  Uiso   1.00
H289   H     0.32508   0.51918   0.41341   0.00000  Uiso   1.00
H290   H     0.38031   0.54792   0.54255   0.00000  Uiso   1.00
C232   C     0.93020   0.77257   0.16625   0.00000  Uiso   1.00
C233   C     0.85579   0.05349   0.01680   0.00000  Uiso   1.00
C234   C     0.78943   0.09308   0.99183   0.00000  Uiso   1.00
B30    B     0.89665   0.99697   0.96738   0.00000  Uiso   1.00
O59    O     0.92980   0.98977   0.00256   0.00000  Uiso   1.00
C235   C     0.79069   0.06767   0.95239   0.00000  Uiso   1.00
C236   C     0.85789   0.03038   0.97646   0.00000  Uiso   1.00
C237   C     0.82482   0.03731   0.94450   0.00000  Uiso   1.00
O60    O     0.89915   0.97541   0.92353   0.00000  Uiso   1.00
C238   C     0.01781   0.00543   0.06973   0.00000  Uiso   1.00
C239   C     0.83812   0.88501   0.90449   0.00000  Uiso   1.00
H291   H     0.03885   0.02630   0.09175   0.00000  Uiso   1.00
H292   H     0.02905   0.97039   0.07284   0.00000  Uiso   1.00
H293   H     0.98293   0.00766   0.08167   0.00000  Uiso   1.00
H294   H     0.81612   0.86387   0.88368   0.00000  Uiso   1.00
H295   H     0.82397   0.91911   0.90528   0.00000  Uiso   1.00
H296   H     0.83794   0.87153   0.93886   0.00000  Uiso   1.00
H297   H     0.76519   0.07173   0.92734   0.00000  Uiso   1.00
H298   H     0.82045   0.09941   0.05704   0.00000  Uiso   1.00
H299   H     0.82508   0.01918   0.91341   0.00000  Uiso   1.00
H300   H     0.88031   0.04792   0.04255   0.00000  Uiso   1.00
C240   C     0.43020   0.27257   0.66625   0.00000  Uiso   1.00
C241   C     0.14421   0.44651   0.01680   0.00000  Uiso   1.00
C242   C     0.21057   0.40692   0.99183   0.00000  Uiso   1.00
B31    B     0.10335   0.50303   0.96738   0.00000  Uiso   1.00
O61    O     0.07020   0.51023   0.00256   0.00000  Uiso   1.00
C243   C     0.20931   0.43233   0.95239   0.00000  Uiso   1.00
C244   C     0.14211   0.46962   0.97646   0.00000  Uiso   1.00
C245   C     0.17518   0.46269   0.94450   0.00000  Uiso   1.00
O62    O     0.10085   0.52459   0.92353   0.00000  Uiso   1.00
C246   C     0.98219   0.49457   0.06973   0.00000  Uiso   1.00
C247   C     0.16188   0.61499   0.90449   0.00000  Uiso   1.00
H301   H     0.96115   0.47370   0.09175   0.00000  Uiso   1.00
H302   H     0.97095   0.52961   0.07284   0.00000  Uiso   1.00
H303   H     0.01707   0.49234   0.08167   0.00000  Uiso   1.00
H304   H     0.18388   0.63613   0.88368   0.00000  Uiso   1.00
H305   H     0.17603   0.58089   0.90528   0.00000  Uiso   1.00
H306   H     0.16206   0.62847   0.93886   0.00000  Uiso   1.00
H307   H     0.23481   0.42827   0.92734   0.00000  Uiso   1.00
H308   H     0.17955   0.40059   0.05704   0.00000  Uiso   1.00
H309   H     0.17492   0.48082   0.91341   0.00000  Uiso   1.00
H310   H     0.11969   0.45208   0.04255   0.00000  Uiso   1.00
C248   C     0.56980   0.22743   0.66625   0.00000  Uiso   1.00
C249   C     0.64421   0.94651   0.51680   0.00000  Uiso   1.00
C250   C     0.71057   0.90692   0.49183   0.00000  Uiso   1.00
B32    B     0.60335   0.00303   0.46738   0.00000  Uiso   1.00
O63    O     0.57020   0.01023   0.50256   0.00000  Uiso   1.00
C251   C     0.70931   0.93233   0.45239   0.00000  Uiso   1.00
C252   C     0.64211   0.96962   0.47646   0.00000  Uiso   1.00
C253   C     0.67518   0.96269   0.44450   0.00000  Uiso   1.00
O64    O     0.60085   0.02459   0.42353   0.00000  Uiso   1.00
C254   C     0.48219   0.99457   0.56973   0.00000  Uiso   1.00
C255   C     0.66188   0.11499   0.40449   0.00000  Uiso   1.00
H311   H     0.46115   0.97370   0.59175   0.00000  Uiso   1.00
H312   H     0.47095   0.02961   0.57284   0.00000  Uiso   1.00
H313   H     0.51707   0.99234   0.58167   0.00000  Uiso   1.00
H314   H     0.68388   0.13613   0.38368   0.00000  Uiso   1.00
H315   H     0.67603   0.08089   0.40528   0.00000  Uiso   1.00
H316   H     0.66206   0.12847   0.43886   0.00000  Uiso   1.00
H317   H     0.73481   0.92827   0.42734   0.00000  Uiso   1.00
H318   H     0.67955   0.90059   0.55704   0.00000  Uiso   1.00
H319   H     0.67492   0.98082   0.41341   0.00000  Uiso   1.00
H320   H     0.61969   0.95208   0.54255   0.00000  Uiso   1.00
C256   C     0.06980   0.72743   0.16625   0.00000  Uiso   1.00
C257   C     0.94651   0.48320   0.85579   0.00000  Uiso   1.00
C258   C     0.90692   0.50817   0.78943   0.00000  Uiso   1.00
B33    B     0.00303   0.53262   0.89665   0.00000  Uiso   1.00
O65    O     0.01023   0.49744   0.92980   0.00000  Uiso   1.00
C259   C     0.93233   0.54761   0.79069   0.00000  Uiso   1.00
C260   C     0.96962   0.52354   0.85789   0.00000  Uiso   1.00
C261   C     0.96269   0.55550   0.82482   0.00000  Uiso   1.00
O66    O     0.02459   0.57647   0.89915   0.00000  Uiso   1.00
C262   C     0.99457   0.43027   0.01781   0.00000  Uiso   1.00
C263   C     0.11499   0.59551   0.83812   0.00000  Uiso   1.00
H321   H     0.97370   0.40825   0.03885   0.00000  Uiso   1.00
H322   H     0.02961   0.42716   0.02905   0.00000  Uiso   1.00
H323   H     0.99234   0.41833   0.98293   0.00000  Uiso   1.00
H324   H     0.13613   0.61632   0.81612   0.00000  Uiso   1.00
H325   H     0.08089   0.59472   0.82397   0.00000  Uiso   1.00
H326   H     0.12847   0.56114   0.83794   0.00000  Uiso   1.00
H327   H     0.92827   0.57266   0.76519   0.00000  Uiso   1.00
H328   H     0.90059   0.44296   0.82045   0.00000  Uiso   1.00
H329   H     0.98082   0.58659   0.82508   0.00000  Uiso   1.00
H330   H     0.95208   0.45745   0.88031   0.00000  Uiso   1.00
C264   C     0.72743   0.83375   0.43020   0.00000  Uiso   1.00
C265   C     0.44651   0.98320   0.35579   0.00000  Uiso   1.00
C266   C     0.40692   0.00817   0.28943   0.00000  Uiso   1.00
B34    B     0.50303   0.03262   0.39665   0.00000  Uiso   1.00
O67    O     0.51023   0.99744   0.42980   0.00000  Uiso   1.00
C267   C     0.43233   0.04761   0.29069   0.00000  Uiso   1.00
C268   C     0.46962   0.02354   0.35789   0.00000  Uiso   1.00
C269   C     0.46269   0.05550   0.32482   0.00000  Uiso   1.00
O68    O     0.52459   0.07647   0.39915   0.00000  Uiso   1.00
C270   C     0.49457   0.93027   0.51781   0.00000  Uiso   1.00
C271   C     0.61499   0.09551   0.33812   0.00000  Uiso   1.00
H331   H     0.47370   0.90825   0.53885   0.00000  Uiso   1.00
H332   H     0.52961   0.92716   0.52905   0.00000  Uiso   1.00
H333   H     0.49234   0.91833   0.48293   0.00000  Uiso   1.00
H334   H     0.63613   0.11632   0.31612   0.00000  Uiso   1.00
H335   H     0.58089   0.09472   0.32397   0.00000  Uiso   1.00
H336   H     0.62847   0.06114   0.33794   0.00000  Uiso   1.00
H337   H     0.42827   0.07266   0.26519   0.00000  Uiso   1.00
H338   H     0.40059   0.94296   0.32045   0.00000  Uiso   1.00
H339   H     0.48082   0.08659   0.32508   0.00000  Uiso   1.00
H340   H     0.45208   0.95745   0.38031   0.00000  Uiso   1.00
C272   C     0.22743   0.33375   0.93020   0.00000  Uiso   1.00
C273   C     0.05349   0.98320   0.64421   0.00000  Uiso   1.00
C274   C     0.09308   0.00817   0.71057   0.00000  Uiso   1.00
B35    B     0.99697   0.03262   0.60335   0.00000  Uiso   1.00
O69    O     0.98977   0.99744   0.57020   0.00000  Uiso   1.00
C275   C     0.06767   0.04761   0.70931   0.00000  Uiso   1.00
C276   C     0.03038   0.02354   0.64211   0.00000  Uiso   1.00
C277   C     0.03731   0.05550   0.67518   0.00000  Uiso   1.00
O70    O     0.97541   0.07647   0.60085   0.00000  Uiso   1.00
C278   C     0.00543   0.93027   0.48219   0.00000  Uiso   1.00
C279   C     0.88501   0.09551   0.66188   0.00000  Uiso   1.00
H341   H     0.02630   0.90825   0.46115   0.00000  Uiso   1.00
H342   H     0.97039   0.92716   0.47095   0.00000  Uiso   1.00
H343   H     0.00766   0.91833   0.51707   0.00000  Uiso   1.00
H344   H     0.86387   0.11632   0.68388   0.00000  Uiso   1.00
H345   H     0.91911   0.09472   0.67603   0.00000  Uiso   1.00
H346   H     0.87153   0.06114   0.66206   0.00000  Uiso   1.00
H347   H     0.07173   0.07266   0.73481   0.00000  Uiso   1.00
H348   H     0.09941   0.94296   0.67955   0.00000  Uiso   1.00
H349   H     0.01918   0.08659   0.67492   0.00000  Uiso   1.00
H350   H     0.04792   0.95745   0.61969   0.00000  Uiso   1.00
C280   C     0.27257   0.33375   0.06980   0.00000  Uiso   1.00
C281   C     0.55349   0.48320   0.14421   0.00000  Uiso   1.00
C282   C     0.59308   0.50817   0.21057   0.00000  Uiso   1.00
B36    B     0.49697   0.53262   0.10335   0.00000  Uiso   1.00
O71    O     0.48977   0.49744   0.07020   0.00000  Uiso   1.00
C283   C     0.56767   0.54761   0.20931   0.00000  Uiso   1.00
C284   C     0.53038   0.52354   0.14211   0.00000  Uiso   1.00
C285   C     0.53731   0.55550   0.17518   0.00000  Uiso   1.00
O72    O     0.47541   0.57647   0.10085   0.00000  Uiso   1.00
C286   C     0.50543   0.43027   0.98219   0.00000  Uiso   1.00
C287   C     0.38501   0.59551   0.16188   0.00000  Uiso   1.00
H351   H     0.52630   0.40825   0.96115   0.00000  Uiso   1.00
H352   H     0.47039   0.42716   0.97095   0.00000  Uiso   1.00
H353   H     0.50766   0.41833   0.01707   0.00000  Uiso   1.00
H354   H     0.36387   0.61632   0.18388   0.00000  Uiso   1.00
H355   H     0.41911   0.59472   0.17603   0.00000  Uiso   1.00
H356   H     0.37153   0.56114   0.16206   0.00000  Uiso   1.00
H357   H     0.57173   0.57266   0.23481   0.00000  Uiso   1.00
H358   H     0.59941   0.44296   0.17955   0.00000  Uiso   1.00
H359   H     0.51918   0.58659   0.17492   0.00000  Uiso   1.00
H360   H     0.54792   0.45745   0.11969   0.00000  Uiso   1.00
C288   C     0.77257   0.83375   0.56980   0.00000  Uiso   1.00
C289   C     0.55349   0.51680   0.35579   0.00000  Uiso   1.00
C290   C     0.59308   0.49183   0.28943   0.00000  Uiso   1.00
B37    B     0.49697   0.46738   0.39665   0.00000  Uiso   1.00
O73    O     0.48977   0.50256   0.42980   0.00000  Uiso   1.00
C291   C     0.56767   0.45239   0.29069   0.00000  Uiso   1.00
C292   C     0.53038   0.47646   0.35789   0.00000  Uiso   1.00
C293   C     0.53731   0.44450   0.32482   0.00000  Uiso   1.00
O74    O     0.47541   0.42353   0.39915   0.00000  Uiso   1.00
C294   C     0.50543   0.56973   0.51781   0.00000  Uiso   1.00
C295   C     0.38501   0.40449   0.33812   0.00000  Uiso   1.00
H361   H     0.52630   0.59175   0.53885   0.00000  Uiso   1.00
H362   H     0.47039   0.57284   0.52905   0.00000  Uiso   1.00
H363   H     0.50766   0.58167   0.48293   0.00000  Uiso   1.00
H364   H     0.36387   0.38368   0.31612   0.00000  Uiso   1.00
H365   H     0.41911   0.40528   0.32397   0.00000  Uiso   1.00
H366   H     0.37153   0.43886   0.33794   0.00000  Uiso   1.00
H367   H     0.57173   0.42734   0.26519   0.00000  Uiso   1.00
H368   H     0.59941   0.55704   0.32045   0.00000  Uiso   1.00
H369   H     0.51918   0.41341   0.32508   0.00000  Uiso   1.00
H370   H     0.54792   0.54255   0.38031   0.00000  Uiso   1.00
C296   C     0.77257   0.16625   0.93020   0.00000  Uiso   1.00
C297   C     0.05349   0.01680   0.85579   0.00000  Uiso   1.00
C298   C     0.09308   0.99183   0.78943   0.00000  Uiso   1.00
B38    B     0.99697   0.96738   0.89665   0.00000  Uiso   1.00
O75    O     0.98977   0.00256   0.92980   0.00000  Uiso   1.00
C299   C     0.06767   0.95239   0.79069   0.00000  Uiso   1.00
C300   C     0.03038   0.97646   0.85789   0.00000  Uiso   1.00
C301   C     0.03731   0.94450   0.82482   0.00000  Uiso   1.00
O76    O     0.97541   0.92353   0.89915   0.00000  Uiso   1.00
C302   C     0.00543   0.06973   0.01781   0.00000  Uiso   1.00
C303   C     0.88501   0.90449   0.83812   0.00000  Uiso   1.00
H371   H     0.02630   0.09175   0.03885   0.00000  Uiso   1.00
H372   H     0.97039   0.07284   0.02905   0.00000  Uiso   1.00
H373   H     0.00766   0.08167   0.98293   0.00000  Uiso   1.00
H374   H     0.86387   0.88368   0.81612   0.00000  Uiso   1.00
H375   H     0.91911   0.90528   0.82397   0.00000  Uiso   1.00
H376   H     0.87153   0.93886   0.83794   0.00000  Uiso   1.00
H377   H     0.07173   0.92734   0.76519   0.00000  Uiso   1.00
H378   H     0.09941   0.05704   0.82045   0.00000  Uiso   1.00
H379   H     0.01918   0.91341   0.82508   0.00000  Uiso   1.00
H380   H     0.04792   0.04255   0.88031   0.00000  Uiso   1.00
C304   C     0.27257   0.66625   0.43020   0.00000  Uiso   1.00
C305   C     0.44651   0.01680   0.14421   0.00000  Uiso   1.00
C306   C     0.40692   0.99183   0.21057   0.00000  Uiso   1.00
B39    B     0.50303   0.96738   0.10335   0.00000  Uiso   1.00
O77    O     0.51023   0.00256   0.07020   0.00000  Uiso   1.00
C307   C     0.43233   0.95239   0.20931   0.00000  Uiso   1.00
C308   C     0.46962   0.97646   0.14211   0.00000  Uiso   1.00
C309   C     0.46269   0.94450   0.17518   0.00000  Uiso   1.00
O78    O     0.52459   0.92353   0.10085   0.00000  Uiso   1.00
C310   C     0.49457   0.06973   0.98219   0.00000  Uiso   1.00
C311   C     0.61499   0.90449   0.16188   0.00000  Uiso   1.00
H381   H     0.47370   0.09175   0.96115   0.00000  Uiso   1.00
H382   H     0.52961   0.07284   0.97095   0.00000  Uiso   1.00
H383   H     0.49234   0.08167   0.01707   0.00000  Uiso   1.00
H384   H     0.63613   0.88368   0.18388   0.00000  Uiso   1.00
H385   H     0.58089   0.90528   0.17603   0.00000  Uiso   1.00
H386   H     0.62847   0.93886   0.16206   0.00000  Uiso   1.00
H387   H     0.42827   0.92734   0.23481   0.00000  Uiso   1.00
H388   H     0.40059   0.05704   0.17955   0.00000  Uiso   1.00
H389   H     0.48082   0.91341   0.17492   0.00000  Uiso   1.00
H390   H     0.45208   0.04255   0.11969   0.00000  Uiso   1.00
C312   C     0.22743   0.66625   0.56980   0.00000  Uiso   1.00
C313   C     0.94651   0.51680   0.64421   0.00000  Uiso   1.00
C314   C     0.90692   0.49183   0.71057   0.00000  Uiso   1.00
B40    B     0.00303   0.46738   0.60335   0.00000  Uiso   1.00
O79    O     0.01023   0.50256   0.57020   0.00000  Uiso   1.00
C315   C     0.93233   0.45239   0.70931   0.00000  Uiso   1.00
C316   C     0.96962   0.47646   0.64211   0.00000  Uiso   1.00
C317   C     0.96269   0.44450   0.67518   0.00000  Uiso   1.00
O80    O     0.02459   0.42353   0.60085   0.00000  Uiso   1.00
C318   C     0.99457   0.56973   0.48219   0.00000  Uiso   1.00
C319   C     0.11499   0.40449   0.66188   0.00000  Uiso   1.00
H391   H     0.97370   0.59175   0.46115   0.00000  Uiso   1.00
H392   H     0.02961   0.57284   0.47095   0.00000  Uiso   1.00
H393   H     0.99234   0.58167   0.51707   0.00000  Uiso   1.00
H394   H     0.13613   0.38368   0.68388   0.00000  Uiso   1.00
H395   H     0.08089   0.40528   0.67603   0.00000  Uiso   1.00
H396   H     0.12847   0.43886   0.66206   0.00000  Uiso   1.00
H397   H     0.92827   0.42734   0.73481   0.00000  Uiso   1.00
H398   H     0.90059   0.55704   0.67955   0.00000  Uiso   1.00
H399   H     0.98082   0.41341   0.67492   0.00000  Uiso   1.00
H400   H     0.95208   0.54255   0.61969   0.00000  Uiso   1.00
C320   C     0.72743   0.16625   0.06980   0.00000  Uiso   1.00
C321   C     0.48320   0.85579   0.94651   0.00000  Uiso   1.00
C322   C     0.50817   0.78943   0.90692   0.00000  Uiso   1.00
B41    B     0.53262   0.89665   0.00303   0.00000  Uiso   1.00
O81    O     0.49744   0.92980   0.01023   0.00000  Uiso   1.00
C323   C     0.54761   0.79069   0.93233   0.00000  Uiso   1.00
C324   C     0.52354   0.85789   0.96962   0.00000  Uiso   1.00
C325   C     0.55550   0.82482   0.96269   0.00000  Uiso   1.00
O82    O     0.57647   0.89915   0.02459   0.00000  Uiso   1.00
C326   C     0.43027   0.01781   0.99457   0.00000  Uiso   1.00
C327   C     0.59551   0.83812   0.11499   0.00000  Uiso   1.00
H401   H     0.40825   0.03885   0.97370   0.00000  Uiso   1.00
H402   H     0.42716   0.02905   0.02961   0.00000  Uiso   1.00
H403   H     0.41833   0.98293   0.99234   0.00000  Uiso   1.00
H404   H     0.61632   0.81612   0.13613   0.00000  Uiso   1.00
H405   H     0.59472   0.82397   0.08089   0.00000  Uiso   1.00
H406   H     0.56114   0.83794   0.12847   0.00000  Uiso   1.00
H407   H     0.57266   0.76519   0.92827   0.00000  Uiso   1.00
H408   H     0.44296   0.82045   0.90059   0.00000  Uiso   1.00
H409   H     0.58659   0.82508   0.98082   0.00000  Uiso   1.00
H410   H     0.45745   0.88031   0.95208   0.00000  Uiso   1.00
C328   C     0.83375   0.43020   0.72743   0.00000  Uiso   1.00
C329   C     0.98320   0.35579   0.44651   0.00000  Uiso   1.00
C330   C     0.00817   0.28943   0.40692   0.00000  Uiso   1.00
B42    B     0.03262   0.39665   0.50303   0.00000  Uiso   1.00
O83    O     0.99744   0.42980   0.51023   0.00000  Uiso   1.00
C331   C     0.04761   0.29069   0.43233   0.00000  Uiso   1.00
C332   C     0.02354   0.35789   0.46962   0.00000  Uiso   1.00
C333   C     0.05550   0.32482   0.46269   0.00000  Uiso   1.00
O84    O     0.07647   0.39915   0.52459   0.00000  Uiso   1.00
C334   C     0.93027   0.51781   0.49457   0.00000  Uiso   1.00
C335   C     0.09551   0.33812   0.61499   0.00000  Uiso   1.00
H411   H     0.90825   0.53885   0.47370   0.00000  Uiso   1.00
H412   H     0.92716   0.52905   0.52961   0.00000  Uiso   1.00
H413   H     0.91833   0.48293   0.49234   0.00000  Uiso   1.00
H414   H     0.11632   0.31612   0.63613   0.00000  Uiso   1.00
H415   H     0.09472   0.32397   0.58089   0.00000  Uiso   1.00
H416   H     0.06114   0.33794   0.62847   0.00000  Uiso   1.00
H417   H     0.07266   0.26519   0.42827   0.00000  Uiso   1.00
H418   H     0.94296   0.32045   0.40059   0.00000  Uiso   1.00
H419   H     0.08659   0.32508   0.48082   0.00000  Uiso   1.00
H420   H     0.95745   0.38031   0.45208   0.00000  Uiso   1.00
C336   C     0.33375   0.93020   0.22743   0.00000  Uiso   1.00
C337   C     0.98320   0.64421   0.05349   0.00000  Uiso   1.00
C338   C     0.00817   0.71057   0.09308   0.00000  Uiso   1.00
B43    B     0.03262   0.60335   0.99697   0.00000  Uiso   1.00
O85    O     0.99744   0.57020   0.98977   0.00000  Uiso   1.00
C339   C     0.04761   0.70931   0.06767   0.00000  Uiso   1.00
C340   C     0.02354   0.64211   0.03038   0.00000  Uiso   1.00
C341   C     0.05550   0.67518   0.03731   0.00000  Uiso   1.00
O86    O     0.07647   0.60085   0.97541   0.00000  Uiso   1.00
C342   C     0.93027   0.48219   0.00543   0.00000  Uiso   1.00
C343   C     0.09551   0.66188   0.88501   0.00000  Uiso   1.00
H421   H     0.90825   0.46115   0.02630   0.00000  Uiso   1.00
H422   H     0.92716   0.47095   0.97039   0.00000  Uiso   1.00
H423   H     0.91833   0.51707   0.00766   0.00000  Uiso   1.00
H424   H     0.11632   0.68388   0.86387   0.00000  Uiso   1.00
H425   H     0.09472   0.67603   0.91911   0.00000  Uiso   1.00
H426   H     0.06114   0.66206   0.87153   0.00000  Uiso   1.00
H427   H     0.07266   0.73481   0.07173   0.00000  Uiso   1.00
H428   H     0.94296   0.67955   0.09941   0.00000  Uiso   1.00
H429   H     0.08659   0.67492   0.01918   0.00000  Uiso   1.00
H430   H     0.95745   0.61969   0.04792   0.00000  Uiso   1.00
C344   C     0.33375   0.06980   0.27257   0.00000  Uiso   1.00
C345   C     0.48320   0.14421   0.55349   0.00000  Uiso   1.00
C346   C     0.50817   0.21057   0.59308   0.00000  Uiso   1.00
B44    B     0.53262   0.10335   0.49697   0.00000  Uiso   1.00
O87    O     0.49744   0.07020   0.48977   0.00000  Uiso   1.00
C347   C     0.54761   0.20931   0.56767   0.00000  Uiso   1.00
C348   C     0.52354   0.14211   0.53038   0.00000  Uiso   1.00
C349   C     0.55550   0.17518   0.53731   0.00000  Uiso   1.00
O88    O     0.57647   0.10085   0.47541   0.00000  Uiso   1.00
C350   C     0.43027   0.98219   0.50543   0.00000  Uiso   1.00
C351   C     0.59551   0.16188   0.38501   0.00000  Uiso   1.00
H431   H     0.40825   0.96115   0.52630   0.00000  Uiso   1.00
H432   H     0.42716   0.97095   0.47039   0.00000  Uiso   1.00
H433   H     0.41833   0.01707   0.50766   0.00000  Uiso   1.00
H434   H     0.61632   0.18388   0.36387   0.00000  Uiso   1.00
H435   H     0.59472   0.17603   0.41911   0.00000  Uiso   1.00
H436   H     0.56114   0.16206   0.37153   0.00000  Uiso   1.00
H437   H     0.57266   0.23481   0.57173   0.00000  Uiso   1.00
H438   H     0.44296   0.17955   0.59941   0.00000  Uiso   1.00
H439   H     0.58659   0.17492   0.51918   0.00000  Uiso   1.00
H440   H     0.45745   0.11969   0.54792   0.00000  Uiso   1.00
C352   C     0.83375   0.56980   0.77257   0.00000  Uiso   1.00
C353   C     0.51680   0.35579   0.55349   0.00000  Uiso   1.00
C354   C     0.49183   0.28943   0.59308   0.00000  Uiso   1.00
B45    B     0.46738   0.39665   0.49697   0.00000  Uiso   1.00
O89    O     0.50256   0.42980   0.48977   0.00000  Uiso   1.00
C355   C     0.45239   0.29069   0.56767   0.00000  Uiso   1.00
C356   C     0.47646   0.35789   0.53038   0.00000  Uiso   1.00
C357   C     0.44450   0.32482   0.53731   0.00000  Uiso   1.00
O90    O     0.42353   0.39915   0.47541   0.00000  Uiso   1.00
C358   C     0.56973   0.51781   0.50543   0.00000  Uiso   1.00
C359   C     0.40449   0.33812   0.38501   0.00000  Uiso   1.00
H441   H     0.59175   0.53885   0.52630   0.00000  Uiso   1.00
H442   H     0.57284   0.52905   0.47039   0.00000  Uiso   1.00
H443   H     0.58167   0.48293   0.50766   0.00000  Uiso   1.00
H444   H     0.38368   0.31612   0.36387   0.00000  Uiso   1.00
H445   H     0.40528   0.32397   0.41911   0.00000  Uiso   1.00
H446   H     0.43886   0.33794   0.37153   0.00000  Uiso   1.00
H447   H     0.42734   0.26519   0.57173   0.00000  Uiso   1.00
H448   H     0.55704   0.32045   0.59941   0.00000  Uiso   1.00
H449   H     0.41341   0.32508   0.51918   0.00000  Uiso   1.00
H450   H     0.54255   0.38031   0.54792   0.00000  Uiso   1.00
C360   C     0.16625   0.93020   0.77257   0.00000  Uiso   1.00
C361   C     0.01680   0.85579   0.05349   0.00000  Uiso   1.00
C362   C     0.99183   0.78943   0.09308   0.00000  Uiso   1.00
B46    B     0.96738   0.89665   0.99697   0.00000  Uiso   1.00
O91    O     0.00256   0.92980   0.98977   0.00000  Uiso   1.00
C363   C     0.95239   0.79069   0.06767   0.00000  Uiso   1.00
C364   C     0.97646   0.85789   0.03038   0.00000  Uiso   1.00
C365   C     0.94450   0.82482   0.03731   0.00000  Uiso   1.00
O92    O     0.92353   0.89915   0.97541   0.00000  Uiso   1.00
C366   C     0.06973   0.01781   0.00543   0.00000  Uiso   1.00
C367   C     0.90449   0.83812   0.88501   0.00000  Uiso   1.00
H451   H     0.09175   0.03885   0.02630   0.00000  Uiso   1.00
H452   H     0.07284   0.02905   0.97039   0.00000  Uiso   1.00
H453   H     0.08167   0.98293   0.00766   0.00000  Uiso   1.00
H454   H     0.88368   0.81612   0.86387   0.00000  Uiso   1.00
H455   H     0.90528   0.82397   0.91911   0.00000  Uiso   1.00
H456   H     0.93886   0.83794   0.87153   0.00000  Uiso   1.00
H457   H     0.92734   0.76519   0.07173   0.00000  Uiso   1.00
H458   H     0.05704   0.82045   0.09941   0.00000  Uiso   1.00
H459   H     0.91341   0.82508   0.01918   0.00000  Uiso   1.00
H460   H     0.04255   0.88031   0.04792   0.00000  Uiso   1.00
C368   C     0.66625   0.43020   0.27257   0.00000  Uiso   1.00
C369   C     0.01680   0.14421   0.44651   0.00000  Uiso   1.00
C370   C     0.99183   0.21057   0.40692   0.00000  Uiso   1.00
B47    B     0.96738   0.10335   0.50303   0.00000  Uiso   1.00
O93    O     0.00256   0.07020   0.51023   0.00000  Uiso   1.00
C371   C     0.95239   0.20931   0.43233   0.00000  Uiso   1.00
C372   C     0.97646   0.14211   0.46962   0.00000  Uiso   1.00
C373   C     0.94450   0.17518   0.46269   0.00000  Uiso   1.00
O94    O     0.92353   0.10085   0.52459   0.00000  Uiso   1.00
C374   C     0.06973   0.98219   0.49457   0.00000  Uiso   1.00
C375   C     0.90449   0.16188   0.61499   0.00000  Uiso   1.00
H461   H     0.09175   0.96115   0.47370   0.00000  Uiso   1.00
H462   H     0.07284   0.97095   0.52961   0.00000  Uiso   1.00
H463   H     0.08167   0.01707   0.49234   0.00000  Uiso   1.00
H464   H     0.88368   0.18388   0.63613   0.00000  Uiso   1.00
H465   H     0.90528   0.17603   0.58089   0.00000  Uiso   1.00
H466   H     0.93886   0.16206   0.62847   0.00000  Uiso   1.00
H467   H     0.92734   0.23481   0.42827   0.00000  Uiso   1.00
H468   H     0.05704   0.17955   0.40059   0.00000  Uiso   1.00
H469   H     0.91341   0.17492   0.48082   0.00000  Uiso   1.00
H470   H     0.04255   0.11969   0.45208   0.00000  Uiso   1.00
C376   C     0.66625   0.56980   0.22743   0.00000  Uiso   1.00
C377   C     0.51680   0.64421   0.94651   0.00000  Uiso   1.00
C378   C     0.49183   0.71057   0.90692   0.00000  Uiso   1.00
B48    B     0.46738   0.60335   0.00303   0.00000  Uiso   1.00
O95    O     0.50256   0.57020   0.01023   0.00000  Uiso   1.00
C379   C     0.45239   0.70931   0.93233   0.00000  Uiso   1.00
C380   C     0.47646   0.64211   0.96962   0.00000  Uiso   1.00
C381   C     0.44450   0.67518   0.96269   0.00000  Uiso   1.00
O96    O     0.42353   0.60085   0.02459   0.00000  Uiso   1.00
C382   C     0.56973   0.48219   0.99457   0.00000  Uiso   1.00
C383   C     0.40449   0.66188   0.11499   0.00000  Uiso   1.00
H471   H     0.59175   0.46115   0.97370   0.00000  Uiso   1.00
H472   H     0.57284   0.47095   0.02961   0.00000  Uiso   1.00
H473   H     0.58167   0.51707   0.99234   0.00000  Uiso   1.00
H474   H     0.38368   0.68388   0.13613   0.00000  Uiso   1.00
H475   H     0.40528   0.67603   0.08089   0.00000  Uiso   1.00
H476   H     0.43886   0.66206   0.12847   0.00000  Uiso   1.00
H477   H     0.42734   0.73481   0.92827   0.00000  Uiso   1.00
H478   H     0.55704   0.67955   0.90059   0.00000  Uiso   1.00
H479   H     0.41341   0.67492   0.98082   0.00000  Uiso   1.00
H480   H     0.54255   0.61969   0.95208   0.00000  Uiso   1.00
C384   C     0.16625   0.06980   0.72743   0.00000  Uiso   1.00
Si1    Si    0.76492   0.73508   0.26492   0.00000  Uiso   1.00
C385   C     0.72868   0.77132   0.22868   0.00000  Uiso   1.00
C386   C     0.86446   0.63554   0.36446   0.00000  Uiso   1.00
Si2    Si    0.82821   0.67179   0.32821   0.00000  Uiso   1.00
Si3    Si    0.26492   0.23508   0.76492   0.00000  Uiso   1.00
C387   C     0.22868   0.27132   0.72868   0.00000  Uiso   1.00
C388   C     0.36446   0.13554   0.86446   0.00000  Uiso   1.00
Si4    Si    0.32821   0.17179   0.82821   0.00000  Uiso   1.00
Si5    Si    0.73508   0.26492   0.76492   0.00000  Uiso   1.00
C389   C     0.77132   0.22868   0.72868   0.00000  Uiso   1.00
C390   C     0.63554   0.36446   0.86446   0.00000  Uiso   1.00
Si6    Si    0.67179   0.32821   0.82821   0.00000  Uiso   1.00
Si7    Si    0.23508   0.76492   0.26492   0.00000  Uiso   1.00
C391   C     0.27132   0.72868   0.22868   0.00000  Uiso   1.00
C392   C     0.13554   0.86446   0.36446   0.00000  Uiso   1.00
Si8    Si    0.17179   0.82821   0.32821   0.00000  Uiso   1.00
Si9    Si    0.23508   0.23508   0.23508   0.00000  Uiso   1.00
C393   C     0.27132   0.27132   0.27132   0.00000  Uiso   1.00
C394   C     0.13554   0.13554   0.13554   0.00000  Uiso   1.00
Si10   Si    0.17179   0.17179   0.17179   0.00000  Uiso   1.00
Si11   Si    0.73508   0.73508   0.73508   0.00000  Uiso   1.00
C395   C     0.77132   0.77132   0.77132   0.00000  Uiso   1.00
C396   C     0.63554   0.63554   0.63554   0.00000  Uiso   1.00
Si12   Si    0.67179   0.67179   0.67179   0.00000  Uiso   1.00
Si13   Si    0.26492   0.76492   0.73508   0.00000  Uiso   1.00
C397   C     0.22868   0.72868   0.77132   0.00000  Uiso   1.00
C398   C     0.36446   0.86446   0.63554   0.00000  Uiso   1.00
Si14   Si    0.32821   0.82821   0.67179   0.00000  Uiso   1.00
Si15   Si    0.76492   0.26492   0.23508   0.00000  Uiso   1.00
C399   C     0.72868   0.22868   0.27132   0.00000  Uiso   1.00
C400   C     0.86446   0.36446   0.13554   0.00000  Uiso   1.00
Si16   Si    0.82821   0.32821   0.17179   0.00000  Uiso   1.00
Si17   Si    0.98508   0.01492   0.51492   0.00000  Uiso   1.00
C401   C     0.02132   0.97868   0.47868   0.00000  Uiso   1.00
C402   C     0.88554   0.11446   0.61446   0.00000  Uiso   1.00
Si18   Si    0.92179   0.07821   0.57821   0.00000  Uiso   1.00
Si19   Si    0.48508   0.51492   0.01492   0.00000  Uiso   1.00
C403   C     0.52132   0.47868   0.97868   0.00000  Uiso   1.00
C404   C     0.38554   0.61446   0.11446   0.00000  Uiso   1.00
Si20   Si    0.42179   0.57821   0.07821   0.00000  Uiso   1.00
Si21   Si    0.51492   0.98508   0.01492   0.00000  Uiso   1.00
C405   C     0.47868   0.02132   0.97868   0.00000  Uiso   1.00
C406   C     0.61446   0.88554   0.11446   0.00000  Uiso   1.00
Si22   Si    0.57821   0.92179   0.07821   0.00000  Uiso   1.00
Si23   Si    0.01492   0.48508   0.51492   0.00000  Uiso   1.00
C407   C     0.97868   0.52132   0.47868   0.00000  Uiso   1.00
C408   C     0.11446   0.38554   0.61446   0.00000  Uiso   1.00
Si24   Si    0.07821   0.42179   0.57821   0.00000  Uiso   1.00
Si25   Si    0.48508   0.48508   0.48508   0.00000  Uiso   1.00
C409   C     0.52132   0.52132   0.52132   0.00000  Uiso   1.00
C410   C     0.38554   0.38554   0.38554   0.00000  Uiso   1.00
Si26   Si    0.42179   0.42179   0.42179   0.00000  Uiso   1.00
Si27   Si    0.98508   0.98508   0.98508   0.00000  Uiso   1.00
C411   C     0.02132   0.02132   0.02132   0.00000  Uiso   1.00
C412   C     0.88554   0.88554   0.88554   0.00000  Uiso   1.00
Si28   Si    0.92179   0.92179   0.92179   0.00000  Uiso   1.00
Si29   Si    0.01492   0.51492   0.98508   0.00000  Uiso   1.00
C413   C     0.97868   0.47868   0.02132   0.00000  Uiso   1.00
C414   C     0.11446   0.61446   0.88554   0.00000  Uiso   1.00
Si30   Si    0.07821   0.57821   0.92179   0.00000  Uiso   1.00
Si31   Si    0.51492   0.01492   0.48508   0.00000  Uiso   1.00
C415   C     0.47868   0.97868   0.52132   0.00000  Uiso   1.00
C416   C     0.61446   0.11446   0.38554   0.00000  Uiso   1.00
Si32   Si    0.57821   0.07821   0.42179   0.00000  Uiso   1.00
C417   C     0.37500   0.00000   0.25000   0.00000  Uiso   1.00
C418   C     0.12500   0.00000   0.75000   0.00000  Uiso   1.00
C419   C     0.62500   0.50000   0.25000   0.00000  Uiso   1.00
C420   C     0.87500   0.50000   0.75000   0.00000  Uiso   1.00
C421   C     0.25000   0.37500   0.00000   0.00000  Uiso   1.00
C422   C     0.75000   0.12500   0.00000   0.00000  Uiso   1.00
C423   C     0.25000   0.62500   0.50000   0.00000  Uiso   1.00
C424   C     0.75000   0.87500   0.50000   0.00000  Uiso   1.00
C425   C     0.00000   0.25000   0.37500   0.00000  Uiso   1.00
C426   C     0.00000   0.75000   0.12500   0.00000  Uiso   1.00
C427   C     0.50000   0.25000   0.62500   0.00000  Uiso   1.00
C428   C     0.50000   0.75000   0.87500   0.00000  Uiso   1.00
loop_
_geom_bond_atom_site_label_1
_geom_bond_atom_site_label_2
_geom_bond_distance
_geom_bond_site_symmetry_2
_ccdc_geom_bond_type
C1     C376    1.426   .     S
C1     H10     1.083   .     S
C1     C4      1.401   .     S
C2     C376    1.331   .     S
C2     C419    1.547   .     S
C2     C3      1.413   .     S
B1     O2      1.473   .     S
B1     C4      1.565   .     S
B1     O1      1.471   .     S
O1     Si1     1.751   .     S
C3     C5      1.396   .     S
C3     H7      1.083   .     S
C4     C5      1.400   .     S
C5     H9      1.084   .     S
O2     Si2     1.753   .     S
C6     C385    1.538   .     S
C6     H1      1.111   .     S
C6     H2      1.112   .     S
C6     H3      1.112   .     S
C7     H5      1.112   .     S
C7     H6      1.111   .     S
C7     C386    1.537   .     S
C7     H4      1.112   .     S
H8     C376    1.140   .     S
C8     C346    1.331   .     S
C8     H438    1.140   .     S
C8     C345    1.426   .     S
C9     C12     1.401   .     S
C9     C384    1.426   .     S
C9     H20     1.083   .     S
C10    C384    1.331   .     S
C10    C11     1.413   .     S
C10    C418    1.547   .     S
B2     C12     1.565   .     S
B2     O3      1.471   .     S
B2     O4      1.473   .     S
O3     Si3     1.751   .     S
C11    C13     1.396   .     S
C11    H17     1.083   .     S
C12    C13     1.400   .     S
C13    H19     1.084   .     S
O4     Si4     1.753   .     S
C14    H13     1.112   .     S
C14    H11     1.111   .     S
C14    H12     1.112   .     S
C14    C387    1.538   .     S
C15    H14     1.112   .     S
C15    H16     1.111   .     S
C15    H15     1.112   .     S
C15    C388    1.537   .     S
H18    C384    1.140   .     S
C16    C337    1.426   .     S
C16    H428    1.140   .     S
C17    C20     1.401   .     S
C17    C328    1.426   .     S
C17    H30     1.083   .     S
C18    C19     1.413   .     S
C18    C420    1.547   .     S
C18    C328    1.331   .     S
B3     O5      1.471   .     S
B3     C20     1.565   .     S
B3     O6      1.473   .     S
O5     Si5     1.751   .     S
C19    H27     1.083   .     S
C19    C21     1.396   .     S
C20    C21     1.400   .     S
C21    H29     1.084   .     S
O6     Si6     1.753   .     S
C22    H21     1.111   .     S
C22    H22     1.112   .     S
C22    H23     1.112   .     S
C22    C389    1.538   .     S
C23    H25     1.112   .     S
C23    C390    1.537   .     S
C23    H24     1.112   .     S
C23    H26     1.111   .     S
H28    C328    1.140   .     S
C24    C361    1.426   .     S
C24    H458    1.140   .     S
C25    C336    1.426   .     S
C25    H40     1.083   .     S
C25    C28     1.401   .     S
C26    C336    1.331   .     S
C26    C27     1.413   .     S
B4     O8      1.473   .     S
B4     C28     1.565   .     S
B4     O7      1.471   .     S
O7     Si7     1.751   .     S
C27    C29     1.396   .     S
C27    H37     1.083   .     S
C28    C29     1.400   .     S
C29    H39     1.084   .     S
O8     Si8     1.753   .     S
C30    C391    1.538   .     S
C30    H32     1.112   .     S
C30    H33     1.112   .     S
C30    H31     1.111   .     S
C31    H35     1.112   .     S
C31    H36     1.111   .     S
C31    H34     1.112   .     S
C31    C392    1.537   .     S
H38    C336    1.140   .     S
C32    C353    1.426   .     S
C32    C354    1.331   .     S
C32    H448    1.140   .     S
C33    C36     1.401   .     S
C33    H50     1.083   .     S
C33    C344    1.426   .     S
C34    C35     1.413   .     S
C34    C417    1.547   .     S
C34    C344    1.331   .     S
B5     C36     1.565   .     S
B5     O9      1.471   .     S
B5     O10     1.473   .     S
O9     Si9     1.751   .     S
C35    C37     1.396   .     S
C35    H47     1.083   .     S
C36    C37     1.400   .     S
C37    H49     1.084   .     S
O10    Si10    1.753   .     S
C38    H43     1.112   .     S
C38    H42     1.112   .     S
C38    H41     1.111   .     S
C38    C393    1.538   .     S
C39    H44     1.112   .     S
C39    H45     1.112   .     S
C39    C394    1.537   .     S
C39    H46     1.111   .     S
H48    C344    1.140   .     S
C40    C377    1.426   .     S
C40    C378    1.331   .     S
C40    H478    1.140   .     S
C41    C44     1.401   .     S
C41    C352    1.426   .     S
C41    H60     1.083   .     S
C42    C352    1.331   .     S
C42    C420    1.547   .     S
C42    C43     1.413   .     S
B6     O11     1.471   .     S
B6     C44     1.565   .     S
B6     O12     1.473   .     S
O11    Si11    1.751   .     S
C43    C45     1.396   .     S
C43    H57     1.083   .     S
C44    C45     1.400   .     S
C45    H59     1.084   .     S
O12    Si12    1.753   .     S
C46    H51     1.111   .     S
C46    H52     1.112   .     S
C46    H53     1.112   .     S
C46    C395    1.538   .     S
C47    H55     1.112   .     S
C47    H54     1.112   .     S
C47    H56     1.111   .     S
C47    C396    1.537   .     S
H58    C352    1.140   .     S
C48    H468    1.140   .     S
C48    C369    1.426   .     S
C49    C360    1.426   .     S
C49    C52     1.401   .     S
C49    H70     1.083   .     S
C50    C360    1.331   .     S
C50    C51     1.413   .     S
B7     O13     1.471   .     S
B7     C52     1.565   .     S
B7     O14     1.473   .     S
O13    Si13    1.751   .     S
C51    C53     1.396   .     S
C51    H67     1.083   .     S
C52    C53     1.400   .     S
C53    H69     1.084   .     S
O14    Si14    1.753   .     S
C54    H63     1.112   .     S
C54    H62     1.112   .     S
C54    H61     1.111   .     S
C54    C397    1.538   .     S
C55    H64     1.112   .     S
C55    H66     1.111   .     S
C55    H65     1.112   .     S
C55    C398    1.537   .     S
H68    C360    1.140   .     S
C56    C329    1.426   .     S
C56    H418    1.140   .     S
C57    C60     1.401   .     S
C57    H80     1.083   .     S
C57    C368    1.426   .     S
C58    C59     1.413   .     S
C58    C419    1.547   .     S
C58    C368    1.331   .     S
B8     O15     1.471   .     S
B8     C60     1.565   .     S
B8     O16     1.473   .     S
O15    Si15    1.751   .     S
C59    C61     1.396   .     S
C59    H77     1.083   .     S
C60    C61     1.400   .     S
C61    H79     1.084   .     S
O16    Si16    1.753   .     S
C62    H71     1.111   .     S
C62    H72     1.112   .     S
C62    H73     1.112   .     S
C62    C399    1.538   .     S
C63    H74     1.112   .     S
C63    H75     1.112   .     S
C63    C400    1.537   .     S
C63    H76     1.111   .     S
H78    C368    1.140   .     S
C64    C321    1.426   .     S
C64    H408    1.140   .     S
C64    C322    1.331   .     S
C65    C312    1.426   .     S
C65    C68     1.401   .     S
C65    H90     1.083   .     S
C66    C312    1.331   .     S
C66    C67     1.413   .     S
C66    C423    1.547   .     S
B9     O18     1.473   .     S
B9     O17     1.471   .     S
B9     C68     1.565   .     S
O17    Si13    1.751   .     S
C67    C69     1.396   .     S
C67    H87     1.083   .     S
C68    C69     1.400   .     S
C69    H89     1.084   .     S
O18    Si14    1.753   .     S
C70    C397    1.538   .     S
C70    H81     1.111   .     S
C70    H82     1.112   .     S
C70    H83     1.112   .     S
C71    H85     1.112   .     S
C71    H86     1.111   .     S
C71    H84     1.112   .     S
C71    C398    1.537   .     S
H88    C312    1.140   .     S
C72    C282    1.331   .     S
C72    H358    1.140   .     S
C72    C281    1.426   .     S
C73    C76     1.401   .     S
C73    H100    1.083   .     S
C73    C320    1.426   .     S
C74    C320    1.331   .     S
C74    C75     1.413   .     S
C74    C422    1.547   .     S
B10    C76     1.565   .     S
B10    O20     1.473   .     S
B10    O19     1.471   .     S
O19    Si15    1.751   .     S
C75    C77     1.396   .     S
C75    H97     1.083   .     S
C76    C77     1.400   .     S
C77    H99     1.084   .     S
O20    Si16    1.753   .     S
C78    H93     1.112   .     S
C78    H92     1.112   .     S
C78    H91     1.111   .     S
C78    C399    1.538   .     S
C79    H94     1.112   .     S
C79    H96     1.111   .     S
C79    H95     1.112   .     S
C79    C400    1.537   .     S
H98    C320    1.140   .     S
C80    C273    1.426   .     S
C80    H348    1.140   .     S
C81    C84     1.401   .     S
C81    H110    1.083   .     S
C81    C264    1.426   .     S
C82    C83     1.413   .     S
C82    C424    1.547   .     S
C82    C264    1.331   .     S
B11    O21     1.471   .     S
B11    O22     1.473   .     S
B11    C84     1.565   .     S
O21    Si1     1.751   .     S
C83    H107    1.083   .     S
C83    C85     1.396   .     S
C84    C85     1.400   .     S
C85    H109    1.084   .     S
O22    Si2     1.753   .     S
C86    H101    1.111   .     S
C86    H102    1.112   .     S
C86    H103    1.112   .     S
C86    C385    1.538   .     S
C87    H105    1.112   .     S
C87    C386    1.537   .     S
C87    H104    1.112   .     S
C87    H106    1.111   .     S
H108   C264    1.140   .     S
C88    C297    1.426   .     S
C88    H378    1.140   .     S
C89    C272    1.426   .     S
C89    H120    1.083   .     S
C89    C92     1.401   .     S
C90    C272    1.331   .     S
C90    C91     1.413   .     S
B12    O24     1.473   .     S
B12    O23     1.471   .     S
B12    C92     1.565   .     S
O23    Si3     1.751   .     S
C91    C93     1.396   .     S
C91    H117    1.083   .     S
C92    C93     1.400   .     S
C93    H119    1.084   .     S
O24    Si4     1.753   .     S
C94    H112    1.112   .     S
C94    H113    1.112   .     S
C94    C387    1.538   .     S
C94    H111    1.111   .     S
C95    H115    1.112   .     S
C95    H116    1.111   .     S
C95    H114    1.112   .     S
C95    C388    1.537   .     S
H118   C272    1.140   .     S
C96    C289    1.426   .     S
C96    C290    1.331   .     S
C96    H368    1.140   .     S
C97    C100    1.401   .     S
C97    H130    1.083   .     S
C97    C280    1.426   .     S
C98    C99     1.413   .     S
C98    C280    1.331   .     S
C98    C421    1.547   .     S
B13    O26     1.473   .     S
B13    C100    1.565   .     S
B13    O25     1.471   .     S
O25    Si9     1.751   .     S
C99    C101    1.396   .     S
C99    H127    1.083   .     S
C100   C101    1.400   .     S
C101   H129    1.084   .     S
O26    Si10    1.753   .     S
C102   H123    1.112   .     S
C102   H121    1.111   .     S
C102   C393    1.538   .     S
C102   H122    1.112   .     S
C103   H124    1.112   .     S
C103   H125    1.112   .     S
C103   H126    1.111   .     S
C103   C394    1.537   .     S
H128   C280    1.140   .     S
C104   C313    1.426   .     S
C104   C314    1.331   .     S
C104   H398    1.140   .     S
C105   C108    1.401   .     S
C105   C288    1.426   .     S
C105   H140    1.083   .     S
C106   C288    1.331   .     S
C106   C107    1.413   .     S
C106   C424    1.547   .     S
B14    O27     1.471   .     S
B14    O28     1.473   .     S
B14    C108    1.565   .     S
O27    Si11    1.751   .     S
C107   C109    1.396   .     S
C107   H137    1.083   .     S
C108   C109    1.400   .     S
C109   H139    1.084   .     S
O28    Si12    1.753   .     S
C110   H131    1.111   .     S
C110   H132    1.112   .     S
C110   H133    1.112   .     S
C110   C395    1.538   .     S
C111   H135    1.112   .     S
C111   H134    1.112   .     S
C111   H136    1.111   .     S
C111   C396    1.537   .     S
H138   C288    1.140   .     S
C112   H388    1.140   .     S
C112   C305    1.426   .     S
C113   C296    1.426   .     S
C113   C116    1.401   .     S
C113   H150    1.083   .     S
C114   C296    1.331   .     S
C114   C115    1.413   .     S
B15    O29     1.471   .     S
B15    C116    1.565   .     S
B15    O30     1.473   .     S
O29    Si5     1.751   .     S
C115   C117    1.396   .     S
C115   H147    1.083   .     S
C116   C117    1.400   .     S
C117   H149    1.084   .     S
O30    Si6     1.753   .     S
C118   H143    1.112   .     S
C118   C389    1.538   .     S
C118   H142    1.112   .     S
C118   H141    1.111   .     S
C119   H144    1.112   .     S
C119   H146    1.111   .     S
C119   H145    1.112   .     S
C119   C390    1.537   .     S
H148   C296    1.140   .     S
C120   C265    1.426   .     S
C120   H338    1.140   .     S
C121   H160    1.083   .     S
C121   C304    1.426   .     S
C121   C124    1.401   .     S
C122   C123    1.413   .     S
C122   C423    1.547   .     S
C122   C304    1.331   .     S
B16    O31     1.471   .     S
B16    O32     1.473   .     S
B16    C124    1.565   .     S
O31    Si7     1.751   .     S
C123   H157    1.083   .     S
C123   C125    1.396   .     S
C124   C125    1.400   .     S
C125   H159    1.084   .     S
O32    Si8     1.753   .     S
C126   H151    1.111   .     S
C126   H152    1.112   .     S
C126   H153    1.112   .     S
C126   C391    1.538   .     S
C127   H154    1.112   .     S
C127   H155    1.112   .     S
C127   C392    1.537   .     S
C127   H156    1.111   .     S
H158   C304    1.140   .     S
C128   C257    1.426   .     S
C128   H328    1.140   .     S
C128   C258    1.331   .     S
C129   C248    1.426   .     S
C129   H170    1.083   .     S
C129   C132    1.401   .     S
C130   C248    1.331   .     S
C130   C131    1.413   .     S
C130   C427    1.547   .     S
B17    O34     1.473   .     S
B17    C132    1.565   .     S
B17    O33     1.471   .     S
O33    Si5     1.751   .     S
C131   C133    1.396   .     S
C131   H167    1.083   .     S
C132   C133    1.400   .     S
C133   H169    1.084   .     S
O34    Si6     1.753   .     S
C134   C389    1.538   .     S
C134   H161    1.111   .     S
C134   H162    1.112   .     S
C134   H163    1.112   .     S
C135   H165    1.112   .     S
C135   H166    1.111   .     S
C135   H164    1.112   .     S
C135   C390    1.537   .     S
H168   C248    1.140   .     S
C136   C218    1.331   .     S
C136   C217    1.426   .     S
C136   H278    1.140   .     S
C137   C140    1.401   .     S
C137   H180    1.083   .     S
C137   C256    1.426   .     S
C138   C256    1.331   .     S
C138   C426    1.547   .     S
C138   C139    1.413   .     S
B18    C140    1.565   .     S
B18    O35     1.471   .     S
B18    O36     1.473   .     S
O35    Si7     1.751   .     S
C139   C141    1.396   .     S
C139   H177    1.083   .     S
C140   C141    1.400   .     S
C141   H179    1.084   .     S
O36    Si8     1.753   .     S
C142   H173    1.112   .     S
C142   H171    1.111   .     S
C142   C391    1.538   .     S
C142   H172    1.112   .     S
C143   H174    1.112   .     S
C143   H176    1.111   .     S
C143   C392    1.537   .     S
C143   H175    1.112   .     S
H178   C256    1.140   .     S
C144   C209    1.426   .     S
C144   H268    1.140   .     S
C145   C148    1.401   .     S
C145   H190    1.083   .     S
C145   C200    1.426   .     S
C146   C147    1.413   .     S
C146   C428    1.547   .     S
C146   C200    1.331   .     S
B19    O37     1.471   .     S
B19    C148    1.565   .     S
B19    O38     1.473   .     S
O37    Si13    1.751   .     S
C147   H187    1.083   .     S
C147   C149    1.396   .     S
C148   C149    1.400   .     S
C149   H189    1.084   .     S
O38    Si14    1.753   .     S
C150   H181    1.111   .     S
C150   H182    1.112   .     S
C150   H183    1.112   .     S
C150   C397    1.538   .     S
C151   H185    1.112   .     S
C151   C398    1.537   .     S
C151   H184    1.112   .     S
C151   H186    1.111   .     S
H188   C200    1.140   .     S
C152   C233    1.426   .     S
C152   H298    1.140   .     S
C153   C208    1.426   .     S
C153   H200    1.083   .     S
C153   C156    1.401   .     S
C154   C208    1.331   .     S
C154   C155    1.413   .     S
B20    O40     1.473   .     S
B20    O39     1.471   .     S
B20    C156    1.565   .     S
O39    Si15    1.751   .     S
C155   C157    1.396   .     S
C155   H197    1.083   .     S
C156   C157    1.400   .     S
C157   H199    1.084   .     S
O40    Si16    1.753   .     S
C158   H192    1.112   .     S
C158   H193    1.112   .     S
C158   C399    1.538   .     S
C158   H191    1.111   .     S
C159   H195    1.112   .     S
C159   H196    1.111   .     S
C159   H194    1.112   .     S
C159   C400    1.537   .     S
H198   C208    1.140   .     S
C160   C225    1.426   .     S
C160   C226    1.331   .     S
C160   H288    1.140   .     S
C161   C164    1.401   .     S
C161   H210    1.083   .     S
C161   C216    1.426   .     S
C162   C163    1.413   .     S
C162   C216    1.331   .     S
C162   C425    1.547   .     S
B21    O41     1.471   .     S
B21    O42     1.473   .     S
B21    C164    1.565   .     S
O41    Si9     1.751   .     S
C163   C165    1.396   .     S
C163   H207    1.083   .     S
C164   C165    1.400   .     S
C165   H209    1.084   .     S
O42    Si10    1.753   .     S
C166   H203    1.112   .     S
C166   H202    1.112   .     S
C166   H201    1.111   .     S
C166   C393    1.538   .     S
C167   H204    1.112   .     S
C167   H205    1.112   .     S
C167   C394    1.537   .     S
C167   H206    1.111   .     S
H208   C216    1.140   .     S
C168   C249    1.426   .     S
C168   C250    1.331   .     S
C168   H318    1.140   .     S
C169   C172    1.401   .     S
C169   H220    1.083   .     S
C169   C224    1.426   .     S
C170   C224    1.331   .     S
C170   C428    1.547   .     S
C170   C171    1.413   .     S
B22    O43     1.471   .     S
B22    C172    1.565   .     S
B22    O44     1.473   .     S
O43    Si11    1.751   .     S
C171   H217    1.083   .     S
C171   C173    1.396   .     S
C172   C173    1.400   .     S
C173   H219    1.084   .     S
O44    Si12    1.753   .     S
C174   H211    1.111   .     S
C174   H212    1.112   .     S
C174   H213    1.112   .     S
C174   C395    1.538   .     S
C175   H215    1.112   .     S
C175   C396    1.537   .     S
C175   H214    1.112   .     S
C175   H216    1.111   .     S
H218   C224    1.140   .     S
C176   H308    1.140   .     S
C176   C241    1.426   .     S
C177   C180    1.401   .     S
C177   H230    1.083   .     S
C177   C232    1.426   .     S
C178   C232    1.331   .     S
C178   C179    1.413   .     S
B23    O45     1.471   .     S
B23    C180    1.565   .     S
B23    O46     1.473   .     S
O45    Si1     1.751   .     S
C179   C181    1.396   .     S
C179   H227    1.083   .     S
C180   C181    1.400   .     S
C181   H229    1.084   .     S
O46    Si2     1.753   .     S
C182   H223    1.112   .     S
C182   H221    1.111   .     S
C182   C385    1.538   .     S
C182   H222    1.112   .     S
C183   H224    1.112   .     S
C183   H226    1.111   .     S
C183   C386    1.537   .     S
C183   H225    1.112   .     S
H228   C232    1.140   .     S
C184   C201    1.426   .     S
C184   H258    1.140   .     S
C185   H240    1.083   .     S
C185   C240    1.426   .     S
C185   C188    1.401   .     S
C186   C187    1.413   .     S
C186   C240    1.331   .     S
C186   C427    1.547   .     S
B24    O47     1.471   .     S
B24    C188    1.565   .     S
B24    O48     1.473   .     S
O47    Si3     1.751   .     S
C187   C189    1.396   .     S
C187   H237    1.083   .     S
C188   C189    1.400   .     S
C189   H239    1.084   .     S
O48    Si4     1.753   .     S
C190   H231    1.111   .     S
C190   H232    1.112   .     S
C190   H233    1.112   .     S
C190   C387    1.538   .     S
C191   H234    1.112   .     S
C191   H235    1.112   .     S
C191   C388    1.537   .     S
C191   H236    1.111   .     S
H238   C240    1.140   .     S
C192   C193    1.426   .     S
C192   C194    1.331   .     S
C192   H248    1.140   .     S
C193   C196    1.401   .     S
C193   H250    1.083   .     S
C194   C424    1.547   .     S
C194   C195    1.413   .     S
B25    O49     1.471   .     S
B25    O50     1.473   .     S
O49    Si17    1.751   .     S
C195   H247    1.083   .     S
C195   C197    1.396   .     S
C196   C197    1.400   .     S
C197   H249    1.084   .     S
O50    Si18    1.753   .     S
C198   H241    1.111   .     S
C198   C401    1.538   .     S
C199   H244    1.112   .     S
C199   H246    1.111   .     S
C199   C402    1.537   .     S
C199   H245    1.112   .     S
C201   H260    1.083   .     S
C202   C203    1.413   .     S
C202   C421    1.547   .     S
B26    C204    1.565   .     S
B26    O52     1.473   .     S
C203   H257    1.083   .     S
C203   C205    1.396   .     S
C204   C205    1.400   .     S
C205   H259    1.084   .     S
O52    Si20    1.753   .     S
C206   H252    1.112   .     S
C206   H253    1.112   .     S
C206   C403    1.538   .     S
C206   H251    1.111   .     S
C207   H255    1.112   .     S
C207   C404    1.537   .     S
C207   H254    1.112   .     S
C207   H256    1.111   .     S
C209   H270    1.083   .     S
C210   C211    1.413   .     S
C210   C422    1.547   .     S
B27    O54     1.473   .     S
C211   C213    1.396   .     S
C211   H267    1.083   .     S
C212   C213    1.400   .     S
C213   H269    1.084   .     S
O54    Si22    1.753   .     S
C214   H261    1.111   .     S
C214   H263    1.112   .     S
C214   C405    1.538   .     S
C215   H264    1.112   .     S
C215   C406    1.537   .     S
C215   H265    1.112   .     S
C215   H266    1.111   .     S
C217   H280    1.083   .     S
C217   C220    1.401   .     S
C218   C423    1.547   .     S
C218   C219    1.413   .     S
B28    C220    1.565   .     S
B28    O55     1.471   .     S
B28    O56     1.473   .     S
O55    Si23    1.751   .     S
C219   H277    1.083   .     S
C219   C221    1.396   .     S
C220   C221    1.400   .     S
C221   H279    1.084   .     S
O56    Si24    1.753   .     S
C222   H271    1.111   .     S
C222   H272    1.112   .     S
C222   C407    1.538   .     S
C223   H275    1.112   .     S
C223   H276    1.111   .     S
C223   C408    1.537   .     S
C223   H274    1.112   .     S
C225   C228    1.401   .     S
C225   H290    1.083   .     S
C226   C227    1.413   .     S
C226   C423    1.547   .     S
B29    O57     1.471   .     S
B29    C228    1.565   .     S
B29    O58     1.473   .     S
O57    Si25    1.751   .     S
C227   C229    1.396   .     S
C227   H287    1.083   .     S
C228   C229    1.400   .     S
C229   H289    1.084   .     S
O58    Si26    1.753   .     S
C230   H282    1.112   .     S
C230   H283    1.112   .     S
C230   H281    1.111   .     S
C230   C409    1.538   .     S
C231   H284    1.112   .     S
C231   H285    1.112   .     S
C231   H286    1.111   .     S
C231   C410    1.537   .     S
C233   H300    1.083   .     S
C234   C235    1.413   .     S
B30    O60     1.473   .     S
C235   H297    1.083   .     S
C235   C237    1.396   .     S
C236   C237    1.400   .     S
C237   H299    1.084   .     S
O60    Si28    1.753   .     S
C238   C411    1.538   .     S
C238   H291    1.111   .     S
C239   H296    1.111   .     S
C239   H295    1.112   .     S
C239   H294    1.112   .     S
C239   C412    1.537   .     S
C241   H310    1.083   .     S
C242   C243    1.413   .     S
B31    C244    1.565   .     S
B31    O62     1.473   .     S
C243   H307    1.083   .     S
C243   C245    1.396   .     S
C244   C245    1.400   .     S
C245   H309    1.084   .     S
O62    Si30    1.753   .     S
C246   H302    1.112   .     S
C246   C413    1.538   .     S
C246   H301    1.111   .     S
C247   H305    1.112   .     S
C247   H306    1.111   .     S
C247   H304    1.112   .     S
C247   C414    1.537   .     S
C249   C252    1.401   .     S
C249   H320    1.083   .     S
C250   C251    1.413   .     S
C250   C424    1.547   .     S
B32    O63     1.471   .     S
B32    O64     1.473   .     S
O63    Si31    1.751   .     S
C251   C253    1.396   .     S
C251   H317    1.083   .     S
C252   C253    1.400   .     S
C253   H319    1.084   .     S
O64    Si32    1.753   .     S
C254   H313    1.112   .     S
C254   H311    1.111   .     S
C254   C415    1.538   .     S
C255   H314    1.112   .     S
C255   H316    1.111   .     S
C255   C416    1.537   .     S
C255   H315    1.112   .     S
C257   C260    1.401   .     S
C257   H330    1.083   .     S
C258   C420    1.547   .     S
C258   C259    1.413   .     S
B33    O65     1.471   .     S
B33    O66     1.473   .     S
O65    Si29    1.751   .     S
C259   H327    1.083   .     S
C259   C261    1.396   .     S
C260   C261    1.400   .     S
C261   H329    1.084   .     S
O66    Si30    1.753   .     S
C262   H321    1.111   .     S
C262   C413    1.538   .     S
C263   H324    1.112   .     S
C263   H326    1.111   .     S
C263   C414    1.537   .     S
C263   H325    1.112   .     S
C265   H340    1.083   .     S
C266   C267    1.413   .     S
C266   C417    1.547   .     S
B34    C268    1.565   .     S
B34    O68     1.473   .     S
C267   C269    1.396   .     S
C267   H337    1.083   .     S
C268   C269    1.400   .     S
C269   H339    1.084   .     S
O68    Si32    1.753   .     S
C270   H332    1.112   .     S
C270   H333    1.112   .     S
C270   C415    1.538   .     S
C270   H331    1.111   .     S
C271   H335    1.112   .     S
C271   H334    1.112   .     S
C271   H336    1.111   .     S
C271   C416    1.537   .     S
C273   H350    1.083   .     S
C274   C275    1.413   .     S
C274   C418    1.547   .     S
B35    O70     1.473   .     S
C275   C277    1.396   .     S
C275   H347    1.083   .     S
C276   C277    1.400   .     S
C277   H349    1.084   .     S
O70    Si18    1.753   .     S
C278   H341    1.111   .     S
C278   H343    1.112   .     S
C278   C401    1.538   .     S
C279   H344    1.112   .     S
C279   H345    1.112   .     S
C279   H346    1.111   .     S
C279   C402    1.537   .     S
C281   H360    1.083   .     S
C281   C284    1.401   .     S
C282   C419    1.547   .     S
C282   C283    1.413   .     S
B36    C284    1.565   .     S
B36    O72     1.473   .     S
B36    O71     1.471   .     S
O71    Si19    1.751   .     S
C283   H357    1.083   .     S
C283   C285    1.396   .     S
C284   C285    1.400   .     S
C285   H359    1.084   .     S
O72    Si20    1.753   .     S
C286   H351    1.111   .     S
C286   H352    1.112   .     S
C286   C403    1.538   .     S
C287   H355    1.112   .     S
C287   H356    1.111   .     S
C287   C404    1.537   .     S
C287   H354    1.112   .     S
C289   H370    1.083   .     S
C289   C292    1.401   .     S
C290   C291    1.413   .     S
C290   C419    1.547   .     S
B37    O73     1.471   .     S
B37    C292    1.565   .     S
B37    O74     1.473   .     S
O73    Si25    1.751   .     S
C291   C293    1.396   .     S
C291   H367    1.083   .     S
C292   C293    1.400   .     S
C293   H369    1.084   .     S
O74    Si26    1.753   .     S
C294   H362    1.112   .     S
C294   H363    1.112   .     S
C294   C409    1.538   .     S
C294   H361    1.111   .     S
C295   H364    1.112   .     S
C295   H365    1.112   .     S
C295   H366    1.111   .     S
C295   C410    1.537   .     S
C297   H380    1.083   .     S
C298   C299    1.413   .     S
B38    O76     1.473   .     S
C299   H377    1.083   .     S
C299   C301    1.396   .     S
C300   C301    1.400   .     S
C301   H379    1.084   .     S
O76    Si28    1.753   .     S
C302   C411    1.538   .     S
C302   H371    1.111   .     S
C303   H376    1.111   .     S
C303   H375    1.112   .     S
C303   H374    1.112   .     S
C303   C412    1.537   .     S
C305   H390    1.083   .     S
C306   C307    1.413   .     S
B39    C308    1.565   .     S
B39    O78     1.473   .     S
C307   H387    1.083   .     S
C307   C309    1.396   .     S
C308   C309    1.400   .     S
C309   H389    1.084   .     S
O78    Si22    1.753   .     S
C310   H382    1.112   .     S
C310   C405    1.538   .     S
C310   H381    1.111   .     S
C311   H385    1.112   .     S
C311   H386    1.111   .     S
C311   C406    1.537   .     S
C311   H384    1.112   .     S
C313   C316    1.401   .     S
C313   H400    1.083   .     S
C314   C315    1.413   .     S
C314   C420    1.547   .     S
B40    O79     1.471   .     S
B40    O80     1.473   .     S
O79    Si23    1.751   .     S
C315   C317    1.396   .     S
C315   H397    1.083   .     S
C316   C317    1.400   .     S
C317   H399    1.084   .     S
O80    Si24    1.753   .     S
C318   H393    1.112   .     S
C318   H391    1.111   .     S
C318   C407    1.538   .     S
C319   H394    1.112   .     S
C319   H396    1.111   .     S
C319   H395    1.112   .     S
C319   C408    1.537   .     S
C321   C324    1.401   .     S
C321   H410    1.083   .     S
C322   C323    1.413   .     S
C322   C428    1.547   .     S
B41    O81     1.471   .     S
B41    O82     1.473   .     S
O81    Si21    1.751   .     S
C323   H407    1.083   .     S
C323   C325    1.396   .     S
C324   C325    1.400   .     S
C325   H409    1.084   .     S
O82    Si22    1.753   .     S
C326   H401    1.111   .     S
C326   C405    1.538   .     S
C327   H404    1.112   .     S
C327   H406    1.111   .     S
C327   C406    1.537   .     S
C327   H405    1.112   .     S
C329   H420    1.083   .     S
C330   C331    1.413   .     S
C330   C425    1.547   .     S
B42    C332    1.565   .     S
B42    O84     1.473   .     S
C331   H417    1.083   .     S
C331   C333    1.396   .     S
C332   C333    1.400   .     S
C333   H419    1.084   .     S
O84    Si24    1.753   .     S
C334   H412    1.112   .     S
C334   H413    1.112   .     S
C334   C407    1.538   .     S
C334   H411    1.111   .     S
C335   H415    1.112   .     S
C335   C408    1.537   .     S
C335   H414    1.112   .     S
C335   H416    1.111   .     S
C337   H430    1.083   .     S
C338   C426    1.547   .     S
C338   C339    1.413   .     S
B43    O86     1.473   .     S
C339   C341    1.396   .     S
C339   H427    1.083   .     S
C340   C341    1.400   .     S
C341   H429    1.084   .     S
O86    Si30    1.753   .     S
C342   H421    1.111   .     S
C342   H423    1.112   .     S
C342   C413    1.538   .     S
C343   H424    1.112   .     S
C343   H426    1.111   .     S
C343   C414    1.537   .     S
C343   H425    1.112   .     S
C345   H440    1.083   .     S
C345   C348    1.401   .     S
C346   C427    1.547   .     S
C346   C347    1.413   .     S
B44    C348    1.565   .     S
B44    O88     1.473   .     S
B44    O87     1.471   .     S
O87    Si31    1.751   .     S
C347   H437    1.083   .     S
C347   C349    1.396   .     S
C348   C349    1.400   .     S
C349   H439    1.084   .     S
O88    Si32    1.753   .     S
C350   H431    1.111   .     S
C350   H432    1.112   .     S
C350   C415    1.538   .     S
C351   H435    1.112   .     S
C351   H436    1.111   .     S
C351   C416    1.537   .     S
C351   H434    1.112   .     S
C353   H450    1.083   .     S
C353   C356    1.401   .     S
C354   C355    1.413   .     S
C354   C427    1.547   .     S
B45    O89     1.471   .     S
B45    C356    1.565   .     S
B45    O90     1.473   .     S
O89    Si25    1.751   .     S
C355   C357    1.396   .     S
C355   H447    1.083   .     S
C356   C357    1.400   .     S
C357   H449    1.084   .     S
O90    Si26    1.753   .     S
C358   H442    1.112   .     S
C358   H443    1.112   .     S
C358   C409    1.538   .     S
C358   H441    1.111   .     S
C359   H444    1.112   .     S
C359   H445    1.112   .     S
C359   H446    1.111   .     S
C359   C410    1.537   .     S
C361   H460    1.083   .     S
C362   C363    1.413   .     S
B46    O92     1.473   .     S
C363   H457    1.083   .     S
C363   C365    1.396   .     S
C364   C365    1.400   .     S
C365   H459    1.084   .     S
O92    Si28    1.753   .     S
C366   C411    1.538   .     S
C366   H451    1.111   .     S
C367   H456    1.111   .     S
C367   H454    1.112   .     S
C367   C412    1.537   .     S
C367   H455    1.112   .     S
C369   H470    1.083   .     S
C370   C371    1.413   .     S
B47    C372    1.565   .     S
B47    O94     1.473   .     S
C371   H467    1.083   .     S
C371   C373    1.396   .     S
C372   C373    1.400   .     S
C373   H469    1.084   .     S
O94    Si18    1.753   .     S
C374   H462    1.112   .     S
C374   C401    1.538   .     S
C374   H461    1.111   .     S
C375   H465    1.112   .     S
C375   C402    1.537   .     S
C375   H464    1.112   .     S
C375   H466    1.111   .     S
C377   C380    1.401   .     S
C377   H480    1.083   .     S
C378   C379    1.413   .     S
C378   C428    1.547   .     S
B48    O95     1.471   .     S
B48    O96     1.473   .     S
O95    Si19    1.751   .     S
C379   C381    1.396   .     S
C379   H477    1.083   .     S
C380   C381    1.400   .     S
C381   H479    1.084   .     S
O96    Si20    1.753   .     S
C382   H473    1.112   .     S
C382   H471    1.111   .     S
C382   C403    1.538   .     S
C383   H474    1.112   .     S
C383   H476    1.111   .     S
C383   C404    1.537   .     S
C383   H475    1.112   .     S
Si1    C385    1.890   .     S
C386   Si2     1.890   .     S
Si3    C387    1.890   .     S
C388   Si4     1.890   .     S
Si5    C389    1.890   .     S
C390   Si6     1.890   .     S
Si7    C391    1.890   .     S
C392   Si8     1.890   .     S
Si9    C393    1.890   .     S
C394   Si10    1.890   .     S
Si11   C395    1.890   .     S
C396   Si12    1.890   .     S
Si13   C397    1.890   .     S
C398   Si14    1.890   .     S
Si15   C399    1.890   .     S
C400   Si16    1.890   .     S
C402   Si18    1.890   .     S
C404   Si20    1.890   .     S
C406   Si22    1.890   .     S
C408   Si24    1.890   .     S
Si25   C409    1.890   .     S
C410   Si26    1.890   .     S
C412   Si28    1.890   .     S
C414   Si30    1.890   .     S
C416   Si32    1.890   .     S
