data_COF-505
_audit_creation_date              2016-12-13
_audit_creation_method            'Materials Studio'
_symmetry_space_group_name_H-M    'P1'
_symmetry_Int_Tables_number       1
_symmetry_cell_setting            triclinic
loop_
_symmetry_equiv_pos_as_xyz
  x,y,z
_cell_length_a                    18.6831
_cell_length_b                    21.4471
_cell_length_c                    30.2459
_cell_angle_alpha                 90.0000
_cell_angle_beta                  90.0000
_cell_angle_gamma                 90.0000
loop_
_atom_site_label
_atom_site_type_symbol
_atom_site_fract_x
_atom_site_fract_y
_atom_site_fract_z
_atom_site_U_iso_or_equiv
_atom_site_adp_type
_atom_site_occupancy
B1     B     0.78153   0.23070   0.04175   0.00000  Uiso   1.00
C1     C     0.96454   0.07780   0.19498   0.00000  Uiso   1.00
C2     C     0.96331   0.11323   0.23411   0.00000  Uiso   1.00
C3     C     0.02597   0.12826   0.25602   0.00000  Uiso   1.00
C4     C     0.09157   0.11157   0.23799   0.00000  Uiso   1.00
C5     C     0.15414   0.13976   0.25372   0.00000  Uiso   1.00
C6     C     0.21930   0.12941   0.23272   0.00000  Uiso   1.00
C7     C     0.22401   0.08741   0.19751   0.00000  Uiso   1.00
C8     C     0.28818   0.08084   0.17424   0.00000  Uiso   1.00
C9     C     0.29005   0.04635   0.13527   0.00000  Uiso   1.00
C10    C     0.22902   0.01390   0.12085   0.00000  Uiso   1.00
C11    C     0.16254   0.05522   0.18276   0.00000  Uiso   1.00
C12    C     0.09373   0.07022   0.20158   0.00000  Uiso   1.00
C13    C     0.68698   0.07419   0.10232   0.00000  Uiso   1.00
C14    C     0.23585   0.98617   0.07567   0.00000  Uiso   1.00
C15    C     0.22847   0.92193   0.06763   0.00000  Uiso   1.00
C16    C     0.22878   0.89763   0.02378   0.00000  Uiso   1.00
C17    C     0.23710   0.93606   0.98643   0.00000  Uiso   1.00
C18    C     0.24663   0.99982   0.99480   0.00000  Uiso   1.00
C19    C     0.24804   0.02383   0.03818   0.00000  Uiso   1.00
C20    C     0.22171   0.91027   0.94057   0.00000  Uiso   1.00
C21    C     0.05232   0.84775   0.13748   0.00000  Uiso   1.00
C22    C     0.06877   0.79394   0.11361   0.00000  Uiso   1.00
C23    C     0.08033   0.79788   0.06902   0.00000  Uiso   1.00
C24    C     0.07676   0.85386   0.04882   0.00000  Uiso   1.00
C25    C     0.07873   0.85685   0.00320   0.00000  Uiso   1.00
C26    C     0.07609   0.91408   0.98267   0.00000  Uiso   1.00
C27    C     0.07661   0.96979   0.00688   0.00000  Uiso   1.00
C28    C     0.08987   0.02677   0.98655   0.00000  Uiso   1.00
C29    C     0.10546   0.07919   0.01201   0.00000  Uiso   1.00
C30    C     0.09628   0.07758   0.05776   0.00000  Uiso   1.00
C31    C     0.06732   0.96820   0.05277   0.00000  Uiso   1.00
C32    C     0.06520   0.90846   0.07435   0.00000  Uiso   1.00
C33    C     0.89180   0.78705   0.28761   0.00000  Uiso   1.00
C34    C     0.12826   0.31119   0.15450   0.00000  Uiso   1.00
Cu1    Cu    0.07250   0.99519   0.13449   0.00000  Uiso   1.00
F1     F     0.79913   0.26591   0.00368   0.00000  Uiso   1.00
F2     F     0.74629   0.26860   0.07338   0.00000  Uiso   1.00
F3     F     0.73640   0.18050   0.02941   0.00000  Uiso   1.00
F4     F     0.84529   0.20777   0.06057   0.00000  Uiso   1.00
N1     N     0.03030   0.05138   0.18189   0.00000  Uiso   1.00
N2     N     0.16856   0.01611   0.14720   0.00000  Uiso   1.00
N3     N     0.06352   0.90624   0.11850   0.00000  Uiso   1.00
N4     N     0.06975   0.02318   0.07594   0.00000  Uiso   1.00
N5     N     0.65476   0.02034   0.10078   0.00000  Uiso   1.00
N6     N     0.22881   0.94258   0.90399   0.00000  Uiso   1.00
N7     N     0.92313   0.78136   0.32573   0.00000  Uiso   1.00
N8     N     0.07089   0.34609   0.15307   0.00000  Uiso   1.00
F5     F     0.49159   0.61642   0.53823   0.00000  Uiso   1.00
F6     F     0.43891   0.69143   0.49346   0.00000  Uiso   1.00
F7     F     0.05938   0.23020   0.01246   0.00000  Uiso   1.00
F8     F    -0.01922   0.15606   0.03663   0.00000  Uiso   1.00
C35    C     0.98025   0.82292   0.82411   0.00000  Uiso   1.00
C36    C     0.94868   0.80698   0.78433   0.00000  Uiso   1.00
C37    C     0.99025   0.78498   0.74956   0.00000  Uiso   1.00
C38    C     0.06469   0.78123   0.75330   0.00000  Uiso   1.00
C39    C     0.09681   0.79528   0.79360   0.00000  Uiso   1.00
C40    C     0.05454   0.81768   0.82857   0.00000  Uiso   1.00
C41    C     0.37149   0.49102   0.56308   0.00000  Uiso   1.00
C42    C     0.37882   0.42634   0.56237   0.00000  Uiso   1.00
C43    C     0.39661   0.39400   0.52387   0.00000  Uiso   1.00
C44    C     0.40629   0.42388   0.48496   0.00000  Uiso   1.00
C45    C     0.40605   0.49121   0.48455   0.00000  Uiso   1.00
C46    C     0.38553   0.52349   0.52328   0.00000  Uiso   1.00
C47    C     0.41053   0.38542   0.44371   0.00000  Uiso   1.00
C48    C     0.37013   0.40240   0.40679   0.00000  Uiso   1.00
C49    C     0.36161   0.36249   0.37026   0.00000  Uiso   1.00
C50    C     0.40242   0.30769   0.36754   0.00000  Uiso   1.00
C51    C     0.44242   0.29041   0.40445   0.00000  Uiso   1.00
C52    C     0.44613   0.32858   0.44161   0.00000  Uiso   1.00
C53    C     0.95361   0.40030   0.81697   0.00000  Uiso   1.00
C54    C     0.93146   0.39902   0.77408   0.00000  Uiso   1.00
C55    C     0.98045   0.41408   0.74023   0.00000  Uiso   1.00
C56    C     0.05215   0.42852   0.74831   0.00000  Uiso   1.00
C57    C     0.07191   0.43564   0.79274   0.00000  Uiso   1.00
C58    C     0.02274   0.42002   0.82646   0.00000  Uiso   1.00
C59    C     0.09686   0.43606   0.71341   0.00000  Uiso   1.00
C60    C     0.07199   0.44413   0.67063   0.00000  Uiso   1.00
C61    C     0.11508   0.44434   0.63385   0.00000  Uiso   1.00
C62    C     0.18723   0.43108   0.63588   0.00000  Uiso   1.00
C63    C     0.21654   0.42222   0.67870   0.00000  Uiso   1.00
C64    C     0.17166   0.42412   0.71728   0.00000  Uiso   1.00
C65    C     0.11491   0.13458   0.08476   0.00000  Uiso   1.00
C66    C     0.06897   0.15172   0.11824   0.00000  Uiso   1.00
C67    C     0.07571   0.20677   0.14150   0.00000  Uiso   1.00
C68    C     0.12844   0.25018   0.13099   0.00000  Uiso   1.00
C69    C     0.17832   0.23392   0.09804   0.00000  Uiso   1.00
C70    C     0.17123   0.17668   0.07481   0.00000  Uiso   1.00
C71    C     0.75487   0.08017   0.12812   0.00000  Uiso   1.00
C72    C     0.76072   0.06631   0.17314   0.00000  Uiso   1.00
C73    C     0.82833   0.06656   0.19419   0.00000  Uiso   1.00
C74    C     0.89301   0.07602   0.17035   0.00000  Uiso   1.00
C75    C     0.88547   0.08906   0.12502   0.00000  Uiso   1.00
C76    C     0.81795   0.09218   0.10492   0.00000  Uiso   1.00
H1     H     0.91012   0.13001   0.24823   0.00000  Uiso   1.00
H2     H     0.02372   0.15432   0.28884   0.00000  Uiso   1.00
H3     H     0.15192   0.17146   0.28395   0.00000  Uiso   1.00
H4     H     0.26927   0.15525   0.24420   0.00000  Uiso   1.00
H5     H     0.33912   0.10373   0.18716   0.00000  Uiso   1.00
H6     H     0.34129   0.04432   0.11485   0.00000  Uiso   1.00
H7     H     0.66334   0.11594   0.08413   0.00000  Uiso   1.00
H8     H     0.22209   0.88818   0.09648   0.00000  Uiso   1.00
H9     H     0.22213   0.84542   0.01806   0.00000  Uiso   1.00
H10    H     0.25349   0.03377   0.96611   0.00000  Uiso   1.00
H11    H     0.25956   0.07570   0.04236   0.00000  Uiso   1.00
H12    H     0.20300   0.85972   0.93909   0.00000  Uiso   1.00
H13    H     0.07249   0.74709   0.13126   0.00000  Uiso   1.00
H14    H     0.09289   0.75402   0.04919   0.00000  Uiso   1.00
H15    H     0.08252   0.81217   0.98292   0.00000  Uiso   1.00
H16    H     0.07339   0.91696   0.94507   0.00000  Uiso   1.00
H17    H     0.08800   0.03068   0.94898   0.00000  Uiso   1.00
H18    H     0.12578   0.12354   0.99546   0.00000  Uiso   1.00
H19    H     0.83179   0.79638   0.28590   0.00000  Uiso   1.00
H20    H     0.17739   0.32759   0.17360   0.00000  Uiso   1.00
H21    H     0.88833   0.81187   0.77996   0.00000  Uiso   1.00
H22    H     0.96370   0.76967   0.71741   0.00000  Uiso   1.00
H23    H     0.15692   0.78858   0.79801   0.00000  Uiso   1.00
H24    H     0.08151   0.83167   0.86089   0.00000  Uiso   1.00
H25    H     0.37022   0.39820   0.59390   0.00000  Uiso   1.00
H26    H     0.40331   0.34118   0.52477   0.00000  Uiso   1.00
H27    H     0.42223   0.51745   0.45333   0.00000  Uiso   1.00
H28    H     0.38036   0.57643   0.52215   0.00000  Uiso   1.00
H29    H     0.34281   0.44990   0.40562   0.00000  Uiso   1.00
H30    H     0.32172   0.37473   0.34309   0.00000  Uiso   1.00
H31    H     0.47282   0.24432   0.40455   0.00000  Uiso   1.00
H32    H     0.47957   0.31201   0.47086   0.00000  Uiso   1.00
H33    H     0.87386   0.38587   0.76584   0.00000  Uiso   1.00
H34    H     0.96209   0.41485   0.70429   0.00000  Uiso   1.00
H35    H     0.12741   0.45396   0.80150   0.00000  Uiso   1.00
H36    H     0.04118   0.42397   0.86228   0.00000  Uiso   1.00
H37    H     0.01238   0.45115   0.66433   0.00000  Uiso   1.00
H38    H     0.09145   0.45577   0.60006   0.00000  Uiso   1.00
H39    H     0.27636   0.41347   0.68282   0.00000  Uiso   1.00
H40    H     0.19646   0.41596   0.75123   0.00000  Uiso   1.00
H41    H     0.02273   0.11982   0.12788   0.00000  Uiso   1.00
H42    H     0.03764   0.21745   0.16997   0.00000  Uiso   1.00
H43    H     0.22452   0.26672   0.08996   0.00000  Uiso   1.00
H44    H     0.21160   0.16478   0.04783   0.00000  Uiso   1.00
H45    H     0.71077   0.05469   0.19317   0.00000  Uiso   1.00
H46    H     0.83215   0.05901   0.23142   0.00000  Uiso   1.00
H47    H     0.93494   0.09737   0.10375   0.00000  Uiso   1.00
H48    H     0.81562   0.10503   0.06837   0.00000  Uiso   1.00
B2     B     0.28153   0.73070   0.04175   0.00000  Uiso   1.00
C77    C     0.46454   0.57780   0.19498   0.00000  Uiso   1.00
C78    C     0.46331   0.61323   0.23411   0.00000  Uiso   1.00
C79    C     0.52597   0.62826   0.25602   0.00000  Uiso   1.00
C80    C     0.59157   0.61157   0.23799   0.00000  Uiso   1.00
C81    C     0.65414   0.63976   0.25372   0.00000  Uiso   1.00
C82    C     0.71930   0.62941   0.23272   0.00000  Uiso   1.00
C83    C     0.72401   0.58741   0.19751   0.00000  Uiso   1.00
C84    C     0.78818   0.58084   0.17424   0.00000  Uiso   1.00
C85    C     0.79005   0.54635   0.13527   0.00000  Uiso   1.00
C86    C     0.72902   0.51390   0.12085   0.00000  Uiso   1.00
C87    C     0.66254   0.55522   0.18276   0.00000  Uiso   1.00
C88    C     0.59373   0.57022   0.20158   0.00000  Uiso   1.00
C89    C     0.18698   0.57419   0.10232   0.00000  Uiso   1.00
C90    C     0.73585   0.48617   0.07567   0.00000  Uiso   1.00
C91    C     0.72847   0.42193   0.06763   0.00000  Uiso   1.00
C92    C     0.72878   0.39763   0.02378   0.00000  Uiso   1.00
C93    C     0.73710   0.43606   0.98643   0.00000  Uiso   1.00
C94    C     0.74663   0.49982   0.99480   0.00000  Uiso   1.00
C95    C     0.74804   0.52383   0.03818   0.00000  Uiso   1.00
C96    C     0.72171   0.41027   0.94057   0.00000  Uiso   1.00
C97    C     0.55232   0.34775   0.13748   0.00000  Uiso   1.00
C98    C     0.56877   0.29394   0.11361   0.00000  Uiso   1.00
C99    C     0.58033   0.29788   0.06902   0.00000  Uiso   1.00
C100   C     0.57676   0.35386   0.04882   0.00000  Uiso   1.00
C101   C     0.57873   0.35685   0.00320   0.00000  Uiso   1.00
C102   C     0.57609   0.41408   0.98267   0.00000  Uiso   1.00
C103   C     0.57661   0.46979   0.00688   0.00000  Uiso   1.00
C104   C     0.58987   0.52677   0.98655   0.00000  Uiso   1.00
C105   C     0.60546   0.57919   0.01201   0.00000  Uiso   1.00
C106   C     0.59628   0.57758   0.05776   0.00000  Uiso   1.00
C107   C     0.56732   0.46820   0.05277   0.00000  Uiso   1.00
C108   C     0.56520   0.40846   0.07435   0.00000  Uiso   1.00
C109   C     0.39180   0.28705   0.28761   0.00000  Uiso   1.00
C110   C     0.62826   0.81119   0.15450   0.00000  Uiso   1.00
Cu2    Cu    0.57250   0.49519   0.13449   0.00000  Uiso   1.00
F9     F     0.29913   0.76591   0.00368   0.00000  Uiso   1.00
F10    F     0.24629   0.76860   0.07338   0.00000  Uiso   1.00
F11    F     0.23640   0.68050   0.02941   0.00000  Uiso   1.00
F12    F     0.34529   0.70777   0.06057   0.00000  Uiso   1.00
N9     N     0.53030   0.55138   0.18189   0.00000  Uiso   1.00
N10    N     0.66856   0.51611   0.14720   0.00000  Uiso   1.00
N11    N     0.56352   0.40624   0.11850   0.00000  Uiso   1.00
N12    N     0.56975   0.52318   0.07594   0.00000  Uiso   1.00
N13    N     0.15476   0.52034   0.10078   0.00000  Uiso   1.00
N14    N     0.72881   0.44258   0.90399   0.00000  Uiso   1.00
N15    N     0.42313   0.28136   0.32573   0.00000  Uiso   1.00
N16    N     0.57089   0.84609   0.15307   0.00000  Uiso   1.00
F13    F    -0.00841   0.11642   0.53823   0.00000  Uiso   1.00
F14    F    -0.06109   0.19143   0.49346   0.00000  Uiso   1.00
F15    F     0.55938   0.73020   0.01246   0.00000  Uiso   1.00
F16    F     0.48078   0.65606   0.03663   0.00000  Uiso   1.00
C111   C     0.48025   0.32292   0.82411   0.00000  Uiso   1.00
C112   C     0.44868   0.30698   0.78433   0.00000  Uiso   1.00
C113   C     0.49025   0.28498   0.74956   0.00000  Uiso   1.00
C114   C     0.56469   0.28123   0.75330   0.00000  Uiso   1.00
C115   C     0.59681   0.29528   0.79360   0.00000  Uiso   1.00
C116   C     0.55454   0.31768   0.82857   0.00000  Uiso   1.00
C117   C     0.87149   0.99102   0.56308   0.00000  Uiso   1.00
C118   C     0.87882   0.92634   0.56237   0.00000  Uiso   1.00
C119   C     0.89661   0.89400   0.52387   0.00000  Uiso   1.00
C120   C     0.90629   0.92388   0.48496   0.00000  Uiso   1.00
C121   C     0.90605   0.99121   0.48455   0.00000  Uiso   1.00
C122   C     0.88553   0.02349   0.52328   0.00000  Uiso   1.00
C123   C     0.91053   0.88542   0.44371   0.00000  Uiso   1.00
C124   C     0.87013   0.90240   0.40679   0.00000  Uiso   1.00
C125   C     0.86161   0.86249   0.37026   0.00000  Uiso   1.00
C126   C     0.90242   0.80769   0.36754   0.00000  Uiso   1.00
C127   C     0.94242   0.79041   0.40445   0.00000  Uiso   1.00
C128   C     0.94613   0.82858   0.44161   0.00000  Uiso   1.00
C129   C     0.45361   0.90030   0.81697   0.00000  Uiso   1.00
C130   C     0.43146   0.89902   0.77408   0.00000  Uiso   1.00
C131   C     0.48045   0.91408   0.74023   0.00000  Uiso   1.00
C132   C     0.55215   0.92852   0.74831   0.00000  Uiso   1.00
C133   C     0.57191   0.93564   0.79274   0.00000  Uiso   1.00
C134   C     0.52274   0.92002   0.82646   0.00000  Uiso   1.00
C135   C     0.59686   0.93606   0.71341   0.00000  Uiso   1.00
C136   C     0.57199   0.94413   0.67063   0.00000  Uiso   1.00
C137   C     0.61508   0.94434   0.63385   0.00000  Uiso   1.00
C138   C     0.68723   0.93108   0.63588   0.00000  Uiso   1.00
C139   C     0.71654   0.92222   0.67870   0.00000  Uiso   1.00
C140   C     0.67166   0.92412   0.71728   0.00000  Uiso   1.00
C141   C     0.61491   0.63458   0.08476   0.00000  Uiso   1.00
C142   C     0.56897   0.65172   0.11824   0.00000  Uiso   1.00
C143   C     0.57571   0.70677   0.14150   0.00000  Uiso   1.00
C144   C     0.62844   0.75018   0.13099   0.00000  Uiso   1.00
C145   C     0.67832   0.73392   0.09804   0.00000  Uiso   1.00
C146   C     0.67123   0.67668   0.07481   0.00000  Uiso   1.00
C147   C     0.25487   0.58017   0.12812   0.00000  Uiso   1.00
C148   C     0.26072   0.56631   0.17314   0.00000  Uiso   1.00
C149   C     0.32833   0.56656   0.19419   0.00000  Uiso   1.00
C150   C     0.39301   0.57602   0.17035   0.00000  Uiso   1.00
C151   C     0.38547   0.58906   0.12502   0.00000  Uiso   1.00
C152   C     0.31795   0.59218   0.10492   0.00000  Uiso   1.00
H49    H     0.41012   0.63001   0.24823   0.00000  Uiso   1.00
H50    H     0.52372   0.65432   0.28884   0.00000  Uiso   1.00
H51    H     0.65192   0.67146   0.28395   0.00000  Uiso   1.00
H52    H     0.76927   0.65525   0.24420   0.00000  Uiso   1.00
H53    H     0.83912   0.60373   0.18716   0.00000  Uiso   1.00
H54    H     0.84129   0.54432   0.11485   0.00000  Uiso   1.00
H55    H     0.16334   0.61594   0.08413   0.00000  Uiso   1.00
H56    H     0.72209   0.38818   0.09648   0.00000  Uiso   1.00
H57    H     0.72213   0.34542   0.01806   0.00000  Uiso   1.00
H58    H     0.75349   0.53377   0.96611   0.00000  Uiso   1.00
H59    H     0.75956   0.57570   0.04236   0.00000  Uiso   1.00
H60    H     0.70300   0.35972   0.93909   0.00000  Uiso   1.00
H61    H     0.57249   0.24709   0.13126   0.00000  Uiso   1.00
H62    H     0.59289   0.25402   0.04919   0.00000  Uiso   1.00
H63    H     0.58252   0.31217   0.98292   0.00000  Uiso   1.00
H64    H     0.57339   0.41696   0.94507   0.00000  Uiso   1.00
H65    H     0.58800   0.53068   0.94898   0.00000  Uiso   1.00
H66    H     0.62578   0.62354   0.99546   0.00000  Uiso   1.00
H67    H     0.33179   0.29638   0.28590   0.00000  Uiso   1.00
H68    H     0.67739   0.82759   0.17360   0.00000  Uiso   1.00
H69    H     0.38833   0.31187   0.77996   0.00000  Uiso   1.00
H70    H     0.46370   0.26967   0.71741   0.00000  Uiso   1.00
H71    H     0.65692   0.28858   0.79801   0.00000  Uiso   1.00
H72    H     0.58151   0.33167   0.86089   0.00000  Uiso   1.00
H73    H     0.87022   0.89820   0.59390   0.00000  Uiso   1.00
H74    H     0.90331   0.84118   0.52477   0.00000  Uiso   1.00
H75    H     0.92223   0.01745   0.45333   0.00000  Uiso   1.00
H76    H     0.88036   0.07643   0.52215   0.00000  Uiso   1.00
H77    H     0.84281   0.94990   0.40562   0.00000  Uiso   1.00
H78    H     0.82172   0.87473   0.34309   0.00000  Uiso   1.00
H79    H     0.97282   0.74432   0.40455   0.00000  Uiso   1.00
H80    H     0.97957   0.81201   0.47086   0.00000  Uiso   1.00
H81    H     0.37386   0.88587   0.76584   0.00000  Uiso   1.00
H82    H     0.46209   0.91485   0.70429   0.00000  Uiso   1.00
H83    H     0.62741   0.95396   0.80150   0.00000  Uiso   1.00
H84    H     0.54118   0.92397   0.86228   0.00000  Uiso   1.00
H85    H     0.51238   0.95115   0.66433   0.00000  Uiso   1.00
H86    H     0.59145   0.95577   0.60006   0.00000  Uiso   1.00
H87    H     0.77636   0.91347   0.68282   0.00000  Uiso   1.00
H88    H     0.69646   0.91596   0.75123   0.00000  Uiso   1.00
H89    H     0.52273   0.61982   0.12788   0.00000  Uiso   1.00
H90    H     0.53764   0.71745   0.16997   0.00000  Uiso   1.00
H91    H     0.72452   0.76672   0.08996   0.00000  Uiso   1.00
H92    H     0.71160   0.66478   0.04783   0.00000  Uiso   1.00
H93    H     0.21077   0.55469   0.19317   0.00000  Uiso   1.00
H94    H     0.33215   0.55901   0.23142   0.00000  Uiso   1.00
H95    H     0.43494   0.59737   0.10375   0.00000  Uiso   1.00
H96    H     0.31562   0.60503   0.06837   0.00000  Uiso   1.00
B3     B     0.21847   0.23070   0.95825   0.00000  Uiso   1.00
C153   C     0.03546   0.07780   0.80502   0.00000  Uiso   1.00
C154   C     0.03669   0.11323   0.76589   0.00000  Uiso   1.00
C155   C     0.97403   0.12826   0.74398   0.00000  Uiso   1.00
C156   C     0.90843   0.11157   0.76201   0.00000  Uiso   1.00
C157   C     0.84586   0.13976   0.74628   0.00000  Uiso   1.00
C158   C     0.78070   0.12941   0.76728   0.00000  Uiso   1.00
C159   C     0.77599   0.08741   0.80249   0.00000  Uiso   1.00
C160   C     0.71182   0.08084   0.82576   0.00000  Uiso   1.00
C161   C     0.70995   0.04635   0.86473   0.00000  Uiso   1.00
C162   C     0.77098   0.01390   0.87915   0.00000  Uiso   1.00
C163   C     0.83746   0.05522   0.81724   0.00000  Uiso   1.00
C164   C     0.90627   0.07022   0.79842   0.00000  Uiso   1.00
C165   C     0.31302   0.07419   0.89768   0.00000  Uiso   1.00
C166   C     0.76415   0.98617   0.92433   0.00000  Uiso   1.00
C167   C     0.77153   0.92193   0.93237   0.00000  Uiso   1.00
C168   C     0.77122   0.89763   0.97622   0.00000  Uiso   1.00
C169   C     0.76290   0.93606   0.01357   0.00000  Uiso   1.00
C170   C     0.75337   0.99982   0.00520   0.00000  Uiso   1.00
C171   C     0.75196   0.02383   0.96182   0.00000  Uiso   1.00
C172   C     0.77829   0.91027   0.05943   0.00000  Uiso   1.00
C173   C     0.94768   0.84775   0.86252   0.00000  Uiso   1.00
C174   C     0.93123   0.79394   0.88639   0.00000  Uiso   1.00
C175   C     0.91967   0.79788   0.93098   0.00000  Uiso   1.00
C176   C     0.92324   0.85386   0.95118   0.00000  Uiso   1.00
C177   C     0.92127   0.85685   0.99680   0.00000  Uiso   1.00
C178   C     0.92391   0.91408   0.01733   0.00000  Uiso   1.00
C179   C     0.92339   0.96979   0.99312   0.00000  Uiso   1.00
C180   C     0.91013   0.02677   0.01345   0.00000  Uiso   1.00
C181   C     0.89454   0.07919   0.98799   0.00000  Uiso   1.00
C182   C     0.90372   0.07758   0.94224   0.00000  Uiso   1.00
C183   C     0.93268   0.96820   0.94723   0.00000  Uiso   1.00
C184   C     0.93480   0.90846   0.92565   0.00000  Uiso   1.00
C185   C     0.10820   0.78705   0.71239   0.00000  Uiso   1.00
C186   C     0.87174   0.31119   0.84550   0.00000  Uiso   1.00
Cu3    Cu    0.92750   0.99519   0.86551   0.00000  Uiso   1.00
F17    F     0.20087   0.26591   0.99632   0.00000  Uiso   1.00
F18    F     0.25371   0.26860   0.92662   0.00000  Uiso   1.00
F19    F     0.26360   0.18050   0.97059   0.00000  Uiso   1.00
F20    F     0.15471   0.20777   0.93943   0.00000  Uiso   1.00
N17    N     0.96970   0.05138   0.81811   0.00000  Uiso   1.00
N18    N     0.83144   0.01611   0.85280   0.00000  Uiso   1.00
N19    N     0.93648   0.90624   0.88150   0.00000  Uiso   1.00
N20    N     0.93025   0.02318   0.92406   0.00000  Uiso   1.00
N21    N     0.34524   0.02034   0.89922   0.00000  Uiso   1.00
N22    N     0.77119   0.94258   0.09601   0.00000  Uiso   1.00
N23    N     0.07687   0.78136   0.67427   0.00000  Uiso   1.00
N24    N     0.92911   0.34609   0.84693   0.00000  Uiso   1.00
F21    F     0.50841   0.61642   0.46177   0.00000  Uiso   1.00
F22    F     0.56109   0.69143   0.50654   0.00000  Uiso   1.00
F23    F    -0.05938   0.23020  -0.01246   0.00000  Uiso   1.00
F24    F     0.01922   0.15606  -0.03663   0.00000  Uiso   1.00
C187   C     0.01975   0.82292   0.17589   0.00000  Uiso   1.00
C188   C     0.05132   0.80698   0.21567   0.00000  Uiso   1.00
C189   C     0.00975   0.78498   0.25044   0.00000  Uiso   1.00
C190   C     0.93531   0.78123   0.24670   0.00000  Uiso   1.00
C191   C     0.90319   0.79528   0.20640   0.00000  Uiso   1.00
C192   C     0.94546   0.81768   0.17143   0.00000  Uiso   1.00
C193   C     0.62851   0.49102   0.43692   0.00000  Uiso   1.00
C194   C     0.62118   0.42634   0.43763   0.00000  Uiso   1.00
C195   C     0.60339   0.39400   0.47613   0.00000  Uiso   1.00
C196   C     0.59371   0.42388   0.51504   0.00000  Uiso   1.00
C197   C     0.59395   0.49121   0.51545   0.00000  Uiso   1.00
C198   C     0.61447   0.52349   0.47672   0.00000  Uiso   1.00
C199   C     0.58947   0.38542   0.55629   0.00000  Uiso   1.00
C200   C     0.62987   0.40240   0.59321   0.00000  Uiso   1.00
C201   C     0.63839   0.36249   0.62974   0.00000  Uiso   1.00
C202   C     0.59758   0.30769   0.63246   0.00000  Uiso   1.00
C203   C     0.55758   0.29041   0.59555   0.00000  Uiso   1.00
C204   C     0.55387   0.32858   0.55839   0.00000  Uiso   1.00
C205   C     0.04639   0.40030   0.18303   0.00000  Uiso   1.00
C206   C     0.06854   0.39902   0.22592   0.00000  Uiso   1.00
C207   C     0.01955   0.41408   0.25977   0.00000  Uiso   1.00
C208   C     0.94785   0.42852   0.25169   0.00000  Uiso   1.00
C209   C     0.92809   0.43564   0.20726   0.00000  Uiso   1.00
C210   C     0.97726   0.42002   0.17354   0.00000  Uiso   1.00
C211   C     0.90314   0.43606   0.28659   0.00000  Uiso   1.00
C212   C     0.92801   0.44413   0.32937   0.00000  Uiso   1.00
C213   C     0.88492   0.44434   0.36615   0.00000  Uiso   1.00
C214   C     0.81277   0.43108   0.36412   0.00000  Uiso   1.00
C215   C     0.78346   0.42222   0.32130   0.00000  Uiso   1.00
C216   C     0.82834   0.42412   0.28272   0.00000  Uiso   1.00
C217   C     0.88509   0.13458   0.91524   0.00000  Uiso   1.00
C218   C     0.93103   0.15172   0.88176   0.00000  Uiso   1.00
C219   C     0.92429   0.20677   0.85850   0.00000  Uiso   1.00
C220   C     0.87156   0.25018   0.86901   0.00000  Uiso   1.00
C221   C     0.82168   0.23392   0.90196   0.00000  Uiso   1.00
C222   C     0.82877   0.17668   0.92519   0.00000  Uiso   1.00
C223   C     0.24513   0.08017   0.87188   0.00000  Uiso   1.00
C224   C     0.23928   0.06631   0.82686   0.00000  Uiso   1.00
C225   C     0.17167   0.06656   0.80581   0.00000  Uiso   1.00
C226   C     0.10699   0.07602   0.82965   0.00000  Uiso   1.00
C227   C     0.11453   0.08906   0.87498   0.00000  Uiso   1.00
C228   C     0.18205   0.09218   0.89508   0.00000  Uiso   1.00
H97    H     0.08988   0.13001   0.75177   0.00000  Uiso   1.00
H98    H     0.97628   0.15432   0.71116   0.00000  Uiso   1.00
H99    H     0.84808   0.17146   0.71605   0.00000  Uiso   1.00
H100   H     0.73073   0.15525   0.75580   0.00000  Uiso   1.00
H101   H     0.66088   0.10373   0.81284   0.00000  Uiso   1.00
H102   H     0.65871   0.04432   0.88515   0.00000  Uiso   1.00
H103   H     0.33666   0.11594   0.91587   0.00000  Uiso   1.00
H104   H     0.77791   0.88818   0.90352   0.00000  Uiso   1.00
H105   H     0.77787   0.84542   0.98194   0.00000  Uiso   1.00
H106   H     0.74651   0.03377   0.03389   0.00000  Uiso   1.00
H107   H     0.74044   0.07570   0.95764   0.00000  Uiso   1.00
H108   H     0.79700   0.85972   0.06091   0.00000  Uiso   1.00
H109   H     0.92751   0.74709   0.86874   0.00000  Uiso   1.00
H110   H     0.90711   0.75402   0.95081   0.00000  Uiso   1.00
H111   H     0.91748   0.81217   0.01708   0.00000  Uiso   1.00
H112   H     0.92661   0.91696   0.05493   0.00000  Uiso   1.00
H113   H     0.91200   0.03068   0.05102   0.00000  Uiso   1.00
H114   H     0.87422   0.12354   0.00454   0.00000  Uiso   1.00
H115   H     0.16821   0.79638   0.71410   0.00000  Uiso   1.00
H116   H     0.82261   0.32759   0.82640   0.00000  Uiso   1.00
H117   H     0.11167   0.81187   0.22004   0.00000  Uiso   1.00
H118   H     0.03630   0.76967   0.28259   0.00000  Uiso   1.00
H119   H     0.84308   0.78858   0.20199   0.00000  Uiso   1.00
H120   H     0.91849   0.83167   0.13911   0.00000  Uiso   1.00
H121   H     0.62978   0.39820   0.40610   0.00000  Uiso   1.00
H122   H     0.59669   0.34118   0.47523   0.00000  Uiso   1.00
H123   H     0.57777   0.51745   0.54667   0.00000  Uiso   1.00
H124   H     0.61964   0.57643   0.47785   0.00000  Uiso   1.00
H125   H     0.65719   0.44990   0.59438   0.00000  Uiso   1.00
H126   H     0.67828   0.37473   0.65691   0.00000  Uiso   1.00
H127   H     0.52718   0.24432   0.59545   0.00000  Uiso   1.00
H128   H     0.52043   0.31201   0.52914   0.00000  Uiso   1.00
H129   H     0.12614   0.38587   0.23416   0.00000  Uiso   1.00
H130   H     0.03791   0.41485   0.29571   0.00000  Uiso   1.00
H131   H     0.87259   0.45396   0.19850   0.00000  Uiso   1.00
H132   H     0.95882   0.42397   0.13772   0.00000  Uiso   1.00
H133   H     0.98762   0.45115   0.33567   0.00000  Uiso   1.00
H134   H     0.90855   0.45577   0.39994   0.00000  Uiso   1.00
H135   H     0.72364   0.41347   0.31718   0.00000  Uiso   1.00
H136   H     0.80354   0.41596   0.24877   0.00000  Uiso   1.00
H137   H     0.97727   0.11982   0.87212   0.00000  Uiso   1.00
H138   H     0.96236   0.21745   0.83003   0.00000  Uiso   1.00
H139   H     0.77548   0.26672   0.91004   0.00000  Uiso   1.00
H140   H     0.78840   0.16478   0.95217   0.00000  Uiso   1.00
H141   H     0.28923   0.05469   0.80683   0.00000  Uiso   1.00
H142   H     0.16785   0.05901   0.76858   0.00000  Uiso   1.00
H143   H     0.06506   0.09737   0.89625   0.00000  Uiso   1.00
H144   H     0.18438   0.10503   0.93163   0.00000  Uiso   1.00
B4     B     0.71847   0.73070   0.95825   0.00000  Uiso   1.00
C229   C     0.53546   0.57780   0.80502   0.00000  Uiso   1.00
C230   C     0.53669   0.61323   0.76589   0.00000  Uiso   1.00
C231   C     0.47403   0.62826   0.74398   0.00000  Uiso   1.00
C232   C     0.40843   0.61157   0.76201   0.00000  Uiso   1.00
C233   C     0.34586   0.63976   0.74628   0.00000  Uiso   1.00
C234   C     0.28070   0.62941   0.76728   0.00000  Uiso   1.00
C235   C     0.27599   0.58741   0.80249   0.00000  Uiso   1.00
C236   C     0.21182   0.58084   0.82576   0.00000  Uiso   1.00
C237   C     0.20995   0.54635   0.86473   0.00000  Uiso   1.00
C238   C     0.27098   0.51390   0.87915   0.00000  Uiso   1.00
C239   C     0.33746   0.55522   0.81724   0.00000  Uiso   1.00
C240   C     0.40627   0.57022   0.79842   0.00000  Uiso   1.00
C241   C     0.81302   0.57419   0.89768   0.00000  Uiso   1.00
C242   C     0.26415   0.48617   0.92433   0.00000  Uiso   1.00
C243   C     0.27153   0.42193   0.93237   0.00000  Uiso   1.00
C244   C     0.27122   0.39763   0.97622   0.00000  Uiso   1.00
C245   C     0.26290   0.43606   0.01357   0.00000  Uiso   1.00
C246   C     0.25337   0.49982   0.00520   0.00000  Uiso   1.00
C247   C     0.25196   0.52383   0.96182   0.00000  Uiso   1.00
C248   C     0.27829   0.41027   0.05943   0.00000  Uiso   1.00
C249   C     0.44768   0.34775   0.86252   0.00000  Uiso   1.00
C250   C     0.43123   0.29394   0.88639   0.00000  Uiso   1.00
C251   C     0.41967   0.29788   0.93098   0.00000  Uiso   1.00
C252   C     0.42324   0.35386   0.95118   0.00000  Uiso   1.00
C253   C     0.42127   0.35685   0.99680   0.00000  Uiso   1.00
C254   C     0.42391   0.41408   0.01733   0.00000  Uiso   1.00
C255   C     0.42339   0.46979   0.99312   0.00000  Uiso   1.00
C256   C     0.41013   0.52677   0.01345   0.00000  Uiso   1.00
C257   C     0.39454   0.57919   0.98799   0.00000  Uiso   1.00
C258   C     0.40372   0.57758   0.94224   0.00000  Uiso   1.00
C259   C     0.43268   0.46820   0.94723   0.00000  Uiso   1.00
C260   C     0.43480   0.40846   0.92565   0.00000  Uiso   1.00
C261   C     0.60820   0.28705   0.71239   0.00000  Uiso   1.00
C262   C     0.37174   0.81119   0.84550   0.00000  Uiso   1.00
Cu4    Cu    0.42750   0.49519   0.86551   0.00000  Uiso   1.00
F25    F     0.70087   0.76591   0.99632   0.00000  Uiso   1.00
F26    F     0.75371   0.76860   0.92662   0.00000  Uiso   1.00
F27    F     0.76360   0.68050   0.97059   0.00000  Uiso   1.00
F28    F     0.65471   0.70777   0.93943   0.00000  Uiso   1.00
N25    N     0.46970   0.55138   0.81811   0.00000  Uiso   1.00
N26    N     0.33144   0.51611   0.85280   0.00000  Uiso   1.00
N27    N     0.43648   0.40624   0.88150   0.00000  Uiso   1.00
N28    N     0.43025   0.52318   0.92406   0.00000  Uiso   1.00
N29    N     0.84524   0.52034   0.89922   0.00000  Uiso   1.00
N30    N     0.27119   0.44258   0.09601   0.00000  Uiso   1.00
N31    N     0.57687   0.28136   0.67427   0.00000  Uiso   1.00
N32    N     0.42911   0.84609   0.84693   0.00000  Uiso   1.00
F29    F     0.00841   0.11642   0.46177   0.00000  Uiso   1.00
F30    F     0.06109   0.19143   0.50654   0.00000  Uiso   1.00
F31    F     0.44062   0.73020  -0.01246   0.00000  Uiso   1.00
F32    F     0.51922   0.65606  -0.03663   0.00000  Uiso   1.00
C263   C     0.51975   0.32292   0.17589   0.00000  Uiso   1.00
C264   C     0.55132   0.30698   0.21567   0.00000  Uiso   1.00
C265   C     0.50975   0.28498   0.25044   0.00000  Uiso   1.00
C266   C     0.43531   0.28123   0.24670   0.00000  Uiso   1.00
C267   C     0.40319   0.29528   0.20640   0.00000  Uiso   1.00
C268   C     0.44546   0.31768   0.17143   0.00000  Uiso   1.00
C269   C     0.12851   0.99102   0.43692   0.00000  Uiso   1.00
C270   C     0.12118   0.92634   0.43763   0.00000  Uiso   1.00
C271   C     0.10339   0.89400   0.47613   0.00000  Uiso   1.00
C272   C     0.09371   0.92388   0.51504   0.00000  Uiso   1.00
C273   C     0.09395   0.99121   0.51545   0.00000  Uiso   1.00
C274   C     0.11447   0.02349   0.47672   0.00000  Uiso   1.00
C275   C     0.08947   0.88542   0.55629   0.00000  Uiso   1.00
C276   C     0.12987   0.90240   0.59321   0.00000  Uiso   1.00
C277   C     0.13839   0.86249   0.62974   0.00000  Uiso   1.00
C278   C     0.09758   0.80769   0.63246   0.00000  Uiso   1.00
C279   C     0.05758   0.79041   0.59555   0.00000  Uiso   1.00
C280   C     0.05387   0.82858   0.55839   0.00000  Uiso   1.00
C281   C     0.54639   0.90030   0.18303   0.00000  Uiso   1.00
C282   C     0.56854   0.89902   0.22592   0.00000  Uiso   1.00
C283   C     0.51955   0.91408   0.25977   0.00000  Uiso   1.00
C284   C     0.44785   0.92852   0.25169   0.00000  Uiso   1.00
C285   C     0.42809   0.93564   0.20726   0.00000  Uiso   1.00
C286   C     0.47726   0.92002   0.17354   0.00000  Uiso   1.00
C287   C     0.40314   0.93606   0.28659   0.00000  Uiso   1.00
C288   C     0.42801   0.94413   0.32937   0.00000  Uiso   1.00
C289   C     0.38492   0.94434   0.36615   0.00000  Uiso   1.00
C290   C     0.31277   0.93108   0.36412   0.00000  Uiso   1.00
C291   C     0.28346   0.92222   0.32130   0.00000  Uiso   1.00
C292   C     0.32834   0.92412   0.28272   0.00000  Uiso   1.00
C293   C     0.38509   0.63458   0.91524   0.00000  Uiso   1.00
C294   C     0.43103   0.65172   0.88176   0.00000  Uiso   1.00
C295   C     0.42429   0.70677   0.85850   0.00000  Uiso   1.00
C296   C     0.37156   0.75018   0.86901   0.00000  Uiso   1.00
C297   C     0.32168   0.73392   0.90196   0.00000  Uiso   1.00
C298   C     0.32877   0.67668   0.92519   0.00000  Uiso   1.00
C299   C     0.74513   0.58017   0.87188   0.00000  Uiso   1.00
C300   C     0.73928   0.56631   0.82686   0.00000  Uiso   1.00
C301   C     0.67167   0.56656   0.80581   0.00000  Uiso   1.00
C302   C     0.60699   0.57602   0.82965   0.00000  Uiso   1.00
C303   C     0.61453   0.58906   0.87498   0.00000  Uiso   1.00
C304   C     0.68205   0.59218   0.89508   0.00000  Uiso   1.00
H145   H     0.58988   0.63001   0.75177   0.00000  Uiso   1.00
H146   H     0.47628   0.65432   0.71116   0.00000  Uiso   1.00
H147   H     0.34808   0.67146   0.71605   0.00000  Uiso   1.00
H148   H     0.23073   0.65525   0.75580   0.00000  Uiso   1.00
H149   H     0.16088   0.60373   0.81284   0.00000  Uiso   1.00
H150   H     0.15871   0.54432   0.88515   0.00000  Uiso   1.00
H151   H     0.83666   0.61594   0.91587   0.00000  Uiso   1.00
H152   H     0.27791   0.38818   0.90352   0.00000  Uiso   1.00
H153   H     0.27787   0.34542   0.98194   0.00000  Uiso   1.00
H154   H     0.24651   0.53377   0.03389   0.00000  Uiso   1.00
H155   H     0.24044   0.57570   0.95764   0.00000  Uiso   1.00
H156   H     0.29700   0.35972   0.06091   0.00000  Uiso   1.00
H157   H     0.42751   0.24709   0.86874   0.00000  Uiso   1.00
H158   H     0.40711   0.25402   0.95081   0.00000  Uiso   1.00
H159   H     0.41748   0.31217   0.01708   0.00000  Uiso   1.00
H160   H     0.42661   0.41696   0.05493   0.00000  Uiso   1.00
H161   H     0.41200   0.53068   0.05102   0.00000  Uiso   1.00
H162   H     0.37422   0.62354   0.00454   0.00000  Uiso   1.00
H163   H     0.66821   0.29638   0.71410   0.00000  Uiso   1.00
H164   H     0.32261   0.82759   0.82640   0.00000  Uiso   1.00
H165   H     0.61167   0.31187   0.22004   0.00000  Uiso   1.00
H166   H     0.53630   0.26967   0.28259   0.00000  Uiso   1.00
H167   H     0.34308   0.28858   0.20199   0.00000  Uiso   1.00
H168   H     0.41849   0.33167   0.13911   0.00000  Uiso   1.00
H169   H     0.12978   0.89820   0.40610   0.00000  Uiso   1.00
H170   H     0.09669   0.84118   0.47523   0.00000  Uiso   1.00
H171   H     0.07777   0.01745   0.54667   0.00000  Uiso   1.00
H172   H     0.11964   0.07643   0.47785   0.00000  Uiso   1.00
H173   H     0.15719   0.94990   0.59438   0.00000  Uiso   1.00
H174   H     0.17828   0.87473   0.65691   0.00000  Uiso   1.00
H175   H     0.02718   0.74432   0.59545   0.00000  Uiso   1.00
H176   H     0.02043   0.81201   0.52914   0.00000  Uiso   1.00
H177   H     0.62614   0.88587   0.23416   0.00000  Uiso   1.00
H178   H     0.53791   0.91485   0.29571   0.00000  Uiso   1.00
H179   H     0.37259   0.95396   0.19850   0.00000  Uiso   1.00
H180   H     0.45882   0.92397   0.13772   0.00000  Uiso   1.00
H181   H     0.48762   0.95115   0.33567   0.00000  Uiso   1.00
H182   H     0.40855   0.95577   0.39994   0.00000  Uiso   1.00
H183   H     0.22364   0.91347   0.31718   0.00000  Uiso   1.00
H184   H     0.30354   0.91596   0.24877   0.00000  Uiso   1.00
H185   H     0.47727   0.61982   0.87212   0.00000  Uiso   1.00
H186   H     0.46236   0.71745   0.83003   0.00000  Uiso   1.00
H187   H     0.27548   0.76672   0.91004   0.00000  Uiso   1.00
H188   H     0.28840   0.66478   0.95217   0.00000  Uiso   1.00
H189   H     0.78923   0.55469   0.80683   0.00000  Uiso   1.00
H190   H     0.66785   0.55901   0.76858   0.00000  Uiso   1.00
H191   H     0.56506   0.59737   0.89625   0.00000  Uiso   1.00
H192   H     0.68438   0.60503   0.93163   0.00000  Uiso   1.00
B5     B     0.71847   0.23070   0.54175   0.00000  Uiso   1.00
C305   C     0.53546   0.07780   0.69498   0.00000  Uiso   1.00
C306   C     0.53669   0.11323   0.73411   0.00000  Uiso   1.00
C307   C     0.47403   0.12826   0.75602   0.00000  Uiso   1.00
C308   C     0.40843   0.11157   0.73799   0.00000  Uiso   1.00
C309   C     0.34586   0.13976   0.75372   0.00000  Uiso   1.00
C310   C     0.28070   0.12941   0.73272   0.00000  Uiso   1.00
C311   C     0.27599   0.08741   0.69751   0.00000  Uiso   1.00
C312   C     0.21182   0.08084   0.67424   0.00000  Uiso   1.00
C313   C     0.20995   0.04635   0.63527   0.00000  Uiso   1.00
C314   C     0.27098   0.01390   0.62085   0.00000  Uiso   1.00
C315   C     0.33746   0.05522   0.68276   0.00000  Uiso   1.00
C316   C     0.40627   0.07022   0.70158   0.00000  Uiso   1.00
C317   C     0.81302   0.07419   0.60232   0.00000  Uiso   1.00
C318   C     0.26415   0.98617   0.57567   0.00000  Uiso   1.00
C319   C     0.27153   0.92193   0.56763   0.00000  Uiso   1.00
C320   C     0.27122   0.89763   0.52378   0.00000  Uiso   1.00
C321   C     0.26290   0.93606   0.48643   0.00000  Uiso   1.00
C322   C     0.25337   0.99982   0.49480   0.00000  Uiso   1.00
C323   C     0.25196   0.02383   0.53818   0.00000  Uiso   1.00
C324   C     0.27829   0.91027   0.44057   0.00000  Uiso   1.00
C325   C     0.44768   0.84775   0.63748   0.00000  Uiso   1.00
C326   C     0.43123   0.79394   0.61361   0.00000  Uiso   1.00
C327   C     0.41967   0.79788   0.56902   0.00000  Uiso   1.00
C328   C     0.42324   0.85386   0.54882   0.00000  Uiso   1.00
C329   C     0.42127   0.85685   0.50320   0.00000  Uiso   1.00
C330   C     0.42391   0.91408   0.48267   0.00000  Uiso   1.00
C331   C     0.42339   0.96979   0.50688   0.00000  Uiso   1.00
C332   C     0.41013   0.02677   0.48655   0.00000  Uiso   1.00
C333   C     0.39454   0.07919   0.51201   0.00000  Uiso   1.00
C334   C     0.40372   0.07758   0.55776   0.00000  Uiso   1.00
C335   C     0.43268   0.96820   0.55277   0.00000  Uiso   1.00
C336   C     0.43480   0.90846   0.57435   0.00000  Uiso   1.00
C337   C     0.60820   0.78705   0.78761   0.00000  Uiso   1.00
C338   C     0.37174   0.31119   0.65450   0.00000  Uiso   1.00
Cu5    Cu    0.42750   0.99519   0.63449   0.00000  Uiso   1.00
F33    F     0.70087   0.26591   0.50368   0.00000  Uiso   1.00
F34    F     0.75371   0.26860   0.57338   0.00000  Uiso   1.00
F35    F     0.76360   0.18050   0.52941   0.00000  Uiso   1.00
F36    F     0.65471   0.20777   0.56057   0.00000  Uiso   1.00
N33    N     0.46970   0.05138   0.68189   0.00000  Uiso   1.00
N34    N     0.33144   0.01611   0.64720   0.00000  Uiso   1.00
N35    N     0.43648   0.90624   0.61850   0.00000  Uiso   1.00
N36    N     0.43025   0.02318   0.57594   0.00000  Uiso   1.00
N37    N     0.84524   0.02034   0.60078   0.00000  Uiso   1.00
N38    N     0.27119   0.94258   0.40399   0.00000  Uiso   1.00
N39    N     0.57687   0.78136   0.82573   0.00000  Uiso   1.00
N40    N     0.42911   0.34609   0.65307   0.00000  Uiso   1.00
F37    F     0.00841   0.61642   0.03823   0.00000  Uiso   1.00
F38    F     0.06109   0.69143  -0.00654   0.00000  Uiso   1.00
F39    F     0.44062   0.23020   0.51246   0.00000  Uiso   1.00
F40    F     0.51922   0.15606   0.53663   0.00000  Uiso   1.00
C339   C     0.51975   0.82292   0.32411   0.00000  Uiso   1.00
C340   C     0.55132   0.80698   0.28433   0.00000  Uiso   1.00
C341   C     0.50975   0.78498   0.24956   0.00000  Uiso   1.00
C342   C     0.43531   0.78123   0.25330   0.00000  Uiso   1.00
C343   C     0.40319   0.79528   0.29360   0.00000  Uiso   1.00
C344   C     0.44546   0.81768   0.32857   0.00000  Uiso   1.00
C345   C     0.12851   0.49102   0.06308   0.00000  Uiso   1.00
C346   C     0.12118   0.42634   0.06237   0.00000  Uiso   1.00
C347   C     0.10339   0.39400   0.02387   0.00000  Uiso   1.00
C348   C     0.09371   0.42388   0.98496   0.00000  Uiso   1.00
C349   C     0.09395   0.49121   0.98455   0.00000  Uiso   1.00
C350   C     0.11447   0.52349   0.02328   0.00000  Uiso   1.00
C351   C     0.08947   0.38542   0.94371   0.00000  Uiso   1.00
C352   C     0.12987   0.40240   0.90679   0.00000  Uiso   1.00
C353   C     0.13839   0.36249   0.87026   0.00000  Uiso   1.00
C354   C     0.09758   0.30769   0.86754   0.00000  Uiso   1.00
C355   C     0.05758   0.29041   0.90445   0.00000  Uiso   1.00
C356   C     0.05387   0.32858   0.94161   0.00000  Uiso   1.00
C357   C     0.54639   0.40030   0.31697   0.00000  Uiso   1.00
C358   C     0.56854   0.39902   0.27408   0.00000  Uiso   1.00
C359   C     0.51955   0.41408   0.24023   0.00000  Uiso   1.00
C360   C     0.44785   0.42852   0.24831   0.00000  Uiso   1.00
C361   C     0.42809   0.43564   0.29274   0.00000  Uiso   1.00
C362   C     0.47726   0.42002   0.32646   0.00000  Uiso   1.00
C363   C     0.40314   0.43606   0.21341   0.00000  Uiso   1.00
C364   C     0.42801   0.44413   0.17063   0.00000  Uiso   1.00
C365   C     0.38492   0.44434   0.13385   0.00000  Uiso   1.00
C366   C     0.31277   0.43108   0.13588   0.00000  Uiso   1.00
C367   C     0.28346   0.42222   0.17870   0.00000  Uiso   1.00
C368   C     0.32834   0.42412   0.21728   0.00000  Uiso   1.00
C369   C     0.38509   0.13458   0.58476   0.00000  Uiso   1.00
C370   C     0.43103   0.15172   0.61824   0.00000  Uiso   1.00
C371   C     0.42429   0.20677   0.64150   0.00000  Uiso   1.00
C372   C     0.37156   0.25018   0.63099   0.00000  Uiso   1.00
C373   C     0.32168   0.23392   0.59804   0.00000  Uiso   1.00
C374   C     0.32877   0.17668   0.57481   0.00000  Uiso   1.00
C375   C     0.74513   0.08017   0.62812   0.00000  Uiso   1.00
C376   C     0.73928   0.06631   0.67314   0.00000  Uiso   1.00
C377   C     0.67167   0.06656   0.69419   0.00000  Uiso   1.00
C378   C     0.60699   0.07602   0.67035   0.00000  Uiso   1.00
C379   C     0.61453   0.08906   0.62502   0.00000  Uiso   1.00
C380   C     0.68205   0.09218   0.60492   0.00000  Uiso   1.00
H193   H     0.58988   0.13001   0.74823   0.00000  Uiso   1.00
H194   H     0.47628   0.15432   0.78884   0.00000  Uiso   1.00
H195   H     0.34808   0.17146   0.78395   0.00000  Uiso   1.00
H196   H     0.23073   0.15525   0.74420   0.00000  Uiso   1.00
H197   H     0.16088   0.10373   0.68716   0.00000  Uiso   1.00
H198   H     0.15871   0.04432   0.61485   0.00000  Uiso   1.00
H199   H     0.83666   0.11594   0.58413   0.00000  Uiso   1.00
H200   H     0.27791   0.88818   0.59648   0.00000  Uiso   1.00
H201   H     0.27787   0.84542   0.51806   0.00000  Uiso   1.00
H202   H     0.24651   0.03377   0.46611   0.00000  Uiso   1.00
H203   H     0.24044   0.07570   0.54236   0.00000  Uiso   1.00
H204   H     0.29700   0.85972   0.43909   0.00000  Uiso   1.00
H205   H     0.42751   0.74709   0.63126   0.00000  Uiso   1.00
H206   H     0.40711   0.75402   0.54919   0.00000  Uiso   1.00
H207   H     0.41748   0.81217   0.48292   0.00000  Uiso   1.00
H208   H     0.42661   0.91696   0.44507   0.00000  Uiso   1.00
H209   H     0.41200   0.03068   0.44898   0.00000  Uiso   1.00
H210   H     0.37422   0.12354   0.49546   0.00000  Uiso   1.00
H211   H     0.66821   0.79638   0.78590   0.00000  Uiso   1.00
H212   H     0.32261   0.32759   0.67360   0.00000  Uiso   1.00
H213   H     0.61167   0.81187   0.27996   0.00000  Uiso   1.00
H214   H     0.53630   0.76967   0.21741   0.00000  Uiso   1.00
H215   H     0.34308   0.78858   0.29801   0.00000  Uiso   1.00
H216   H     0.41849   0.83167   0.36089   0.00000  Uiso   1.00
H217   H     0.12978   0.39820   0.09390   0.00000  Uiso   1.00
H218   H     0.09669   0.34118   0.02477   0.00000  Uiso   1.00
H219   H     0.07777   0.51745   0.95333   0.00000  Uiso   1.00
H220   H     0.11964   0.57643   0.02215   0.00000  Uiso   1.00
H221   H     0.15719   0.44990   0.90562   0.00000  Uiso   1.00
H222   H     0.17828   0.37473   0.84309   0.00000  Uiso   1.00
H223   H     0.02718   0.24432   0.90455   0.00000  Uiso   1.00
H224   H     0.02043   0.31201   0.97086   0.00000  Uiso   1.00
H225   H     0.62614   0.38587   0.26584   0.00000  Uiso   1.00
H226   H     0.53791   0.41485   0.20429   0.00000  Uiso   1.00
H227   H     0.37259   0.45396   0.30150   0.00000  Uiso   1.00
H228   H     0.45882   0.42397   0.36228   0.00000  Uiso   1.00
H229   H     0.48762   0.45115   0.16433   0.00000  Uiso   1.00
H230   H     0.40855   0.45577   0.10006   0.00000  Uiso   1.00
H231   H     0.22364   0.41347   0.18282   0.00000  Uiso   1.00
H232   H     0.30354   0.41596   0.25123   0.00000  Uiso   1.00
H233   H     0.47727   0.11982   0.62788   0.00000  Uiso   1.00
H234   H     0.46236   0.21745   0.66997   0.00000  Uiso   1.00
H235   H     0.27548   0.26672   0.58996   0.00000  Uiso   1.00
H236   H     0.28840   0.16478   0.54783   0.00000  Uiso   1.00
H237   H     0.78923   0.05469   0.69317   0.00000  Uiso   1.00
H238   H     0.66785   0.05901   0.73142   0.00000  Uiso   1.00
H239   H     0.56506   0.09737   0.60375   0.00000  Uiso   1.00
H240   H     0.68438   0.10503   0.56837   0.00000  Uiso   1.00
B6     B     0.21847   0.73070   0.54175   0.00000  Uiso   1.00
C381   C     0.03546   0.57780   0.69498   0.00000  Uiso   1.00
C382   C     0.03669   0.61323   0.73411   0.00000  Uiso   1.00
C383   C     0.97403   0.62826   0.75602   0.00000  Uiso   1.00
C384   C     0.90843   0.61157   0.73799   0.00000  Uiso   1.00
C385   C     0.84586   0.63976   0.75372   0.00000  Uiso   1.00
C386   C     0.78070   0.62941   0.73272   0.00000  Uiso   1.00
C387   C     0.77599   0.58741   0.69751   0.00000  Uiso   1.00
C388   C     0.71182   0.58084   0.67424   0.00000  Uiso   1.00
C389   C     0.70995   0.54635   0.63527   0.00000  Uiso   1.00
C390   C     0.77098   0.51390   0.62085   0.00000  Uiso   1.00
C391   C     0.83746   0.55522   0.68276   0.00000  Uiso   1.00
C392   C     0.90627   0.57022   0.70158   0.00000  Uiso   1.00
C393   C     0.31302   0.57419   0.60232   0.00000  Uiso   1.00
C394   C     0.76415   0.48617   0.57567   0.00000  Uiso   1.00
C395   C     0.77153   0.42193   0.56763   0.00000  Uiso   1.00
C396   C     0.77122   0.39763   0.52378   0.00000  Uiso   1.00
C397   C     0.76290   0.43606   0.48643   0.00000  Uiso   1.00
C398   C     0.75337   0.49982   0.49480   0.00000  Uiso   1.00
C399   C     0.75196   0.52383   0.53818   0.00000  Uiso   1.00
C400   C     0.77829   0.41027   0.44057   0.00000  Uiso   1.00
C401   C     0.94768   0.34775   0.63748   0.00000  Uiso   1.00
C402   C     0.93123   0.29394   0.61361   0.00000  Uiso   1.00
C403   C     0.91967   0.29788   0.56902   0.00000  Uiso   1.00
C404   C     0.92324   0.35386   0.54882   0.00000  Uiso   1.00
C405   C     0.92127   0.35685   0.50320   0.00000  Uiso   1.00
C406   C     0.92391   0.41408   0.48267   0.00000  Uiso   1.00
C407   C     0.92339   0.46979   0.50688   0.00000  Uiso   1.00
C408   C     0.91013   0.52677   0.48655   0.00000  Uiso   1.00
C409   C     0.89454   0.57919   0.51201   0.00000  Uiso   1.00
C410   C     0.90372   0.57758   0.55776   0.00000  Uiso   1.00
C411   C     0.93268   0.46820   0.55277   0.00000  Uiso   1.00
C412   C     0.93480   0.40846   0.57435   0.00000  Uiso   1.00
C413   C     0.10820   0.28705   0.78761   0.00000  Uiso   1.00
C414   C     0.87174   0.81119   0.65450   0.00000  Uiso   1.00
Cu6    Cu    0.92750   0.49519   0.63449   0.00000  Uiso   1.00
F41    F     0.20087   0.76591   0.50368   0.00000  Uiso   1.00
F42    F     0.25371   0.76860   0.57338   0.00000  Uiso   1.00
F43    F     0.26360   0.68050   0.52941   0.00000  Uiso   1.00
F44    F     0.15471   0.70777   0.56057   0.00000  Uiso   1.00
N41    N     0.96970   0.55138   0.68189   0.00000  Uiso   1.00
N42    N     0.83144   0.51611   0.64720   0.00000  Uiso   1.00
N43    N     0.93648   0.40624   0.61850   0.00000  Uiso   1.00
N44    N     0.93025   0.52318   0.57594   0.00000  Uiso   1.00
N45    N     0.34524   0.52034   0.60078   0.00000  Uiso   1.00
N46    N     0.77119   0.44258   0.40399   0.00000  Uiso   1.00
N47    N     0.07687   0.28136   0.82573   0.00000  Uiso   1.00
N48    N     0.92911   0.84609   0.65307   0.00000  Uiso   1.00
F45    F     0.50841   0.11642   0.03823   0.00000  Uiso   1.00
F46    F     0.56109   0.19143  -0.00654   0.00000  Uiso   1.00
F47    F    -0.05938   0.73020   0.51246   0.00000  Uiso   1.00
F48    F     0.01922   0.65606   0.53663   0.00000  Uiso   1.00
C415   C     0.01975   0.32292   0.32411   0.00000  Uiso   1.00
C416   C     0.05132   0.30698   0.28433   0.00000  Uiso   1.00
C417   C     0.00975   0.28498   0.24956   0.00000  Uiso   1.00
C418   C     0.93531   0.28123   0.25330   0.00000  Uiso   1.00
C419   C     0.90319   0.29528   0.29360   0.00000  Uiso   1.00
C420   C     0.94546   0.31768   0.32857   0.00000  Uiso   1.00
C421   C     0.62851   0.99102   0.06308   0.00000  Uiso   1.00
C422   C     0.62118   0.92634   0.06237   0.00000  Uiso   1.00
C423   C     0.60339   0.89400   0.02387   0.00000  Uiso   1.00
C424   C     0.59371   0.92388   0.98496   0.00000  Uiso   1.00
C425   C     0.59395   0.99121   0.98455   0.00000  Uiso   1.00
C426   C     0.61447   0.02349   0.02328   0.00000  Uiso   1.00
C427   C     0.58947   0.88542   0.94371   0.00000  Uiso   1.00
C428   C     0.62987   0.90240   0.90679   0.00000  Uiso   1.00
C429   C     0.63839   0.86249   0.87026   0.00000  Uiso   1.00
C430   C     0.59758   0.80769   0.86754   0.00000  Uiso   1.00
C431   C     0.55758   0.79041   0.90445   0.00000  Uiso   1.00
C432   C     0.55387   0.82858   0.94161   0.00000  Uiso   1.00
C433   C     0.04639   0.90030   0.31697   0.00000  Uiso   1.00
C434   C     0.06854   0.89902   0.27408   0.00000  Uiso   1.00
C435   C     0.01955   0.91408   0.24023   0.00000  Uiso   1.00
C436   C     0.94785   0.92852   0.24831   0.00000  Uiso   1.00
C437   C     0.92809   0.93564   0.29274   0.00000  Uiso   1.00
C438   C     0.97726   0.92002   0.32646   0.00000  Uiso   1.00
C439   C     0.90314   0.93606   0.21341   0.00000  Uiso   1.00
C440   C     0.92801   0.94413   0.17063   0.00000  Uiso   1.00
C441   C     0.88492   0.94434   0.13385   0.00000  Uiso   1.00
C442   C     0.81277   0.93108   0.13588   0.00000  Uiso   1.00
C443   C     0.78346   0.92222   0.17870   0.00000  Uiso   1.00
C444   C     0.82834   0.92412   0.21728   0.00000  Uiso   1.00
C445   C     0.88509   0.63458   0.58476   0.00000  Uiso   1.00
C446   C     0.93103   0.65172   0.61824   0.00000  Uiso   1.00
C447   C     0.92429   0.70677   0.64150   0.00000  Uiso   1.00
C448   C     0.87156   0.75018   0.63099   0.00000  Uiso   1.00
C449   C     0.82168   0.73392   0.59804   0.00000  Uiso   1.00
C450   C     0.82877   0.67668   0.57481   0.00000  Uiso   1.00
C451   C     0.24513   0.58017   0.62812   0.00000  Uiso   1.00
C452   C     0.23928   0.56631   0.67314   0.00000  Uiso   1.00
C453   C     0.17167   0.56656   0.69419   0.00000  Uiso   1.00
C454   C     0.10699   0.57602   0.67035   0.00000  Uiso   1.00
C455   C     0.11453   0.58906   0.62502   0.00000  Uiso   1.00
C456   C     0.18205   0.59218   0.60492   0.00000  Uiso   1.00
H241   H     0.08988   0.63001   0.74823   0.00000  Uiso   1.00
H242   H     0.97628   0.65432   0.78884   0.00000  Uiso   1.00
H243   H     0.84808   0.67146   0.78395   0.00000  Uiso   1.00
H244   H     0.73073   0.65525   0.74420   0.00000  Uiso   1.00
H245   H     0.66088   0.60373   0.68716   0.00000  Uiso   1.00
H246   H     0.65871   0.54432   0.61485   0.00000  Uiso   1.00
H247   H     0.33666   0.61594   0.58413   0.00000  Uiso   1.00
H248   H     0.77791   0.38818   0.59648   0.00000  Uiso   1.00
H249   H     0.77787   0.34542   0.51806   0.00000  Uiso   1.00
H250   H     0.74651   0.53377   0.46611   0.00000  Uiso   1.00
H251   H     0.74044   0.57570   0.54236   0.00000  Uiso   1.00
H252   H     0.79700   0.35972   0.43909   0.00000  Uiso   1.00
H253   H     0.92751   0.24709   0.63126   0.00000  Uiso   1.00
H254   H     0.90711   0.25402   0.54919   0.00000  Uiso   1.00
H255   H     0.91748   0.31217   0.48292   0.00000  Uiso   1.00
H256   H     0.92661   0.41696   0.44507   0.00000  Uiso   1.00
H257   H     0.91200   0.53068   0.44898   0.00000  Uiso   1.00
H258   H     0.87422   0.62354   0.49546   0.00000  Uiso   1.00
H259   H     0.16821   0.29638   0.78590   0.00000  Uiso   1.00
H260   H     0.82261   0.82759   0.67360   0.00000  Uiso   1.00
H261   H     0.11167   0.31187   0.27996   0.00000  Uiso   1.00
H262   H     0.03630   0.26967   0.21741   0.00000  Uiso   1.00
H263   H     0.84308   0.28858   0.29801   0.00000  Uiso   1.00
H264   H     0.91849   0.33167   0.36089   0.00000  Uiso   1.00
H265   H     0.62978   0.89820   0.09390   0.00000  Uiso   1.00
H266   H     0.59669   0.84118   0.02477   0.00000  Uiso   1.00
H267   H     0.57777   0.01745   0.95333   0.00000  Uiso   1.00
H268   H     0.61964   0.07643   0.02215   0.00000  Uiso   1.00
H269   H     0.65719   0.94990   0.90562   0.00000  Uiso   1.00
H270   H     0.67828   0.87473   0.84309   0.00000  Uiso   1.00
H271   H     0.52718   0.74432   0.90455   0.00000  Uiso   1.00
H272   H     0.52043   0.81201   0.97086   0.00000  Uiso   1.00
H273   H     0.12614   0.88587   0.26584   0.00000  Uiso   1.00
H274   H     0.03791   0.91485   0.20429   0.00000  Uiso   1.00
H275   H     0.87259   0.95396   0.30150   0.00000  Uiso   1.00
H276   H     0.95882   0.92397   0.36228   0.00000  Uiso   1.00
H277   H     0.98762   0.95115   0.16433   0.00000  Uiso   1.00
H278   H     0.90855   0.95577   0.10006   0.00000  Uiso   1.00
H279   H     0.72364   0.91347   0.18282   0.00000  Uiso   1.00
H280   H     0.80354   0.91596   0.25123   0.00000  Uiso   1.00
H281   H     0.97727   0.61982   0.62788   0.00000  Uiso   1.00
H282   H     0.96236   0.71745   0.66997   0.00000  Uiso   1.00
H283   H     0.77548   0.76672   0.58996   0.00000  Uiso   1.00
H284   H     0.78840   0.66478   0.54783   0.00000  Uiso   1.00
H285   H     0.28923   0.55469   0.69317   0.00000  Uiso   1.00
H286   H     0.16785   0.55901   0.73142   0.00000  Uiso   1.00
H287   H     0.06506   0.59737   0.60375   0.00000  Uiso   1.00
H288   H     0.18438   0.60503   0.56837   0.00000  Uiso   1.00
B7     B     0.28153   0.23070   0.45825   0.00000  Uiso   1.00
C457   C     0.46454   0.07780   0.30502   0.00000  Uiso   1.00
C458   C     0.46331   0.11323   0.26589   0.00000  Uiso   1.00
C459   C     0.52597   0.12826   0.24398   0.00000  Uiso   1.00
C460   C     0.59157   0.11157   0.26201   0.00000  Uiso   1.00
C461   C     0.65414   0.13976   0.24628   0.00000  Uiso   1.00
C462   C     0.71930   0.12941   0.26728   0.00000  Uiso   1.00
C463   C     0.72401   0.08741   0.30249   0.00000  Uiso   1.00
C464   C     0.78818   0.08084   0.32576   0.00000  Uiso   1.00
C465   C     0.79005   0.04635   0.36473   0.00000  Uiso   1.00
C466   C     0.72902   0.01390   0.37915   0.00000  Uiso   1.00
C467   C     0.66254   0.05522   0.31724   0.00000  Uiso   1.00
C468   C     0.59373   0.07022   0.29842   0.00000  Uiso   1.00
C469   C     0.18698   0.07419   0.39768   0.00000  Uiso   1.00
C470   C     0.73585   0.98617   0.42433   0.00000  Uiso   1.00
C471   C     0.72847   0.92193   0.43237   0.00000  Uiso   1.00
C472   C     0.72878   0.89763   0.47622   0.00000  Uiso   1.00
C473   C     0.73710   0.93606   0.51357   0.00000  Uiso   1.00
C474   C     0.74663   0.99982   0.50520   0.00000  Uiso   1.00
C475   C     0.74804   0.02383   0.46182   0.00000  Uiso   1.00
C476   C     0.72171   0.91027   0.55943   0.00000  Uiso   1.00
C477   C     0.55232   0.84775   0.36252   0.00000  Uiso   1.00
C478   C     0.56877   0.79394   0.38639   0.00000  Uiso   1.00
C479   C     0.58033   0.79788   0.43098   0.00000  Uiso   1.00
C480   C     0.57676   0.85386   0.45118   0.00000  Uiso   1.00
C481   C     0.57873   0.85685   0.49680   0.00000  Uiso   1.00
C482   C     0.57609   0.91408   0.51733   0.00000  Uiso   1.00
C483   C     0.57661   0.96979   0.49312   0.00000  Uiso   1.00
C484   C     0.58987   0.02677   0.51345   0.00000  Uiso   1.00
C485   C     0.60546   0.07919   0.48799   0.00000  Uiso   1.00
C486   C     0.59628   0.07758   0.44224   0.00000  Uiso   1.00
C487   C     0.56732   0.96820   0.44723   0.00000  Uiso   1.00
C488   C     0.56520   0.90846   0.42565   0.00000  Uiso   1.00
C489   C     0.39180   0.78705   0.21239   0.00000  Uiso   1.00
C490   C     0.62826   0.31119   0.34550   0.00000  Uiso   1.00
Cu7    Cu    0.57250   0.99519   0.36551   0.00000  Uiso   1.00
F49    F     0.29913   0.26591   0.49632   0.00000  Uiso   1.00
F50    F     0.24629   0.26860   0.42662   0.00000  Uiso   1.00
F51    F     0.23640   0.18050   0.47059   0.00000  Uiso   1.00
F52    F     0.34529   0.20777   0.43943   0.00000  Uiso   1.00
N49    N     0.53030   0.05138   0.31811   0.00000  Uiso   1.00
N50    N     0.66856   0.01611   0.35280   0.00000  Uiso   1.00
N51    N     0.56352   0.90624   0.38150   0.00000  Uiso   1.00
N52    N     0.56975   0.02318   0.42406   0.00000  Uiso   1.00
N53    N     0.15476   0.02034   0.39922   0.00000  Uiso   1.00
N54    N     0.72881   0.94258   0.59601   0.00000  Uiso   1.00
N55    N     0.42313   0.78136   0.17427   0.00000  Uiso   1.00
N56    N     0.57089   0.34609   0.34693   0.00000  Uiso   1.00
F53    F    -0.00841   0.61642  -0.03823   0.00000  Uiso   1.00
F54    F    -0.06109   0.69143   0.00654   0.00000  Uiso   1.00
F55    F     0.55938   0.23020   0.48754   0.00000  Uiso   1.00
F56    F     0.48078   0.15606   0.46337   0.00000  Uiso   1.00
C491   C     0.48025   0.82292   0.67589   0.00000  Uiso   1.00
C492   C     0.44868   0.80698   0.71567   0.00000  Uiso   1.00
C493   C     0.49025   0.78498   0.75044   0.00000  Uiso   1.00
C494   C     0.56469   0.78123   0.74670   0.00000  Uiso   1.00
C495   C     0.59681   0.79528   0.70640   0.00000  Uiso   1.00
C496   C     0.55454   0.81768   0.67143   0.00000  Uiso   1.00
C497   C     0.87149   0.49102   0.93692   0.00000  Uiso   1.00
C498   C     0.87882   0.42634   0.93763   0.00000  Uiso   1.00
C499   C     0.89661   0.39400   0.97613   0.00000  Uiso   1.00
C500   C     0.90629   0.42388   0.01504   0.00000  Uiso   1.00
C501   C     0.90605   0.49121   0.01545   0.00000  Uiso   1.00
C502   C     0.88553   0.52349   0.97672   0.00000  Uiso   1.00
C503   C     0.91053   0.38542   0.05629   0.00000  Uiso   1.00
C504   C     0.87013   0.40240   0.09321   0.00000  Uiso   1.00
C505   C     0.86161   0.36249   0.12974   0.00000  Uiso   1.00
C506   C     0.90242   0.30769   0.13246   0.00000  Uiso   1.00
C507   C     0.94242   0.29041   0.09555   0.00000  Uiso   1.00
C508   C     0.94613   0.32858   0.05839   0.00000  Uiso   1.00
C509   C     0.45361   0.40030   0.68303   0.00000  Uiso   1.00
C510   C     0.43146   0.39902   0.72592   0.00000  Uiso   1.00
C511   C     0.48045   0.41408   0.75977   0.00000  Uiso   1.00
C512   C     0.55215   0.42852   0.75169   0.00000  Uiso   1.00
C513   C     0.57191   0.43564   0.70726   0.00000  Uiso   1.00
C514   C     0.52274   0.42002   0.67354   0.00000  Uiso   1.00
C515   C     0.59686   0.43606   0.78659   0.00000  Uiso   1.00
C516   C     0.57199   0.44413   0.82937   0.00000  Uiso   1.00
C517   C     0.61508   0.44434   0.86615   0.00000  Uiso   1.00
C518   C     0.68723   0.43108   0.86412   0.00000  Uiso   1.00
C519   C     0.71654   0.42222   0.82130   0.00000  Uiso   1.00
C520   C     0.67166   0.42412   0.78272   0.00000  Uiso   1.00
C521   C     0.61491   0.13458   0.41524   0.00000  Uiso   1.00
C522   C     0.56897   0.15172   0.38176   0.00000  Uiso   1.00
C523   C     0.57571   0.20677   0.35850   0.00000  Uiso   1.00
C524   C     0.62844   0.25018   0.36901   0.00000  Uiso   1.00
C525   C     0.67832   0.23392   0.40196   0.00000  Uiso   1.00
C526   C     0.67123   0.17668   0.42519   0.00000  Uiso   1.00
C527   C     0.25487   0.08017   0.37188   0.00000  Uiso   1.00
C528   C     0.26072   0.06631   0.32686   0.00000  Uiso   1.00
C529   C     0.32833   0.06656   0.30581   0.00000  Uiso   1.00
C530   C     0.39301   0.07602   0.32965   0.00000  Uiso   1.00
C531   C     0.38547   0.08906   0.37498   0.00000  Uiso   1.00
C532   C     0.31795   0.09218   0.39508   0.00000  Uiso   1.00
H289   H     0.41012   0.13001   0.25177   0.00000  Uiso   1.00
H290   H     0.52372   0.15432   0.21116   0.00000  Uiso   1.00
H291   H     0.65192   0.17146   0.21605   0.00000  Uiso   1.00
H292   H     0.76927   0.15525   0.25580   0.00000  Uiso   1.00
H293   H     0.83912   0.10373   0.31284   0.00000  Uiso   1.00
H294   H     0.84129   0.04432   0.38515   0.00000  Uiso   1.00
H295   H     0.16334   0.11594   0.41587   0.00000  Uiso   1.00
H296   H     0.72209   0.88818   0.40352   0.00000  Uiso   1.00
H297   H     0.72213   0.84542   0.48194   0.00000  Uiso   1.00
H298   H     0.75349   0.03377   0.53389   0.00000  Uiso   1.00
H299   H     0.75956   0.07570   0.45764   0.00000  Uiso   1.00
H300   H     0.70300   0.85972   0.56091   0.00000  Uiso   1.00
H301   H     0.57249   0.74709   0.36874   0.00000  Uiso   1.00
H302   H     0.59289   0.75402   0.45081   0.00000  Uiso   1.00
H303   H     0.58252   0.81217   0.51708   0.00000  Uiso   1.00
H304   H     0.57339   0.91696   0.55493   0.00000  Uiso   1.00
H305   H     0.58800   0.03068   0.55102   0.00000  Uiso   1.00
H306   H     0.62578   0.12354   0.50454   0.00000  Uiso   1.00
H307   H     0.33179   0.79638   0.21410   0.00000  Uiso   1.00
H308   H     0.67739   0.32759   0.32640   0.00000  Uiso   1.00
H309   H     0.38833   0.81187   0.72004   0.00000  Uiso   1.00
H310   H     0.46370   0.76967   0.78259   0.00000  Uiso   1.00
H311   H     0.65692   0.78858   0.70199   0.00000  Uiso   1.00
H312   H     0.58151   0.83167   0.63911   0.00000  Uiso   1.00
H313   H     0.87022   0.39820   0.90610   0.00000  Uiso   1.00
H314   H     0.90331   0.34118   0.97523   0.00000  Uiso   1.00
H315   H     0.92223   0.51745   0.04667   0.00000  Uiso   1.00
H316   H     0.88036   0.57643   0.97785   0.00000  Uiso   1.00
H317   H     0.84281   0.44990   0.09438   0.00000  Uiso   1.00
H318   H     0.82172   0.37473   0.15691   0.00000  Uiso   1.00
H319   H     0.97282   0.24432   0.09545   0.00000  Uiso   1.00
H320   H     0.97957   0.31201   0.02914   0.00000  Uiso   1.00
H321   H     0.37386   0.38587   0.73416   0.00000  Uiso   1.00
H322   H     0.46209   0.41485   0.79571   0.00000  Uiso   1.00
H323   H     0.62741   0.45396   0.69850   0.00000  Uiso   1.00
H324   H     0.54118   0.42397   0.63772   0.00000  Uiso   1.00
H325   H     0.51238   0.45115   0.83567   0.00000  Uiso   1.00
H326   H     0.59145   0.45577   0.89994   0.00000  Uiso   1.00
H327   H     0.77636   0.41347   0.81718   0.00000  Uiso   1.00
H328   H     0.69646   0.41596   0.74877   0.00000  Uiso   1.00
H329   H     0.52273   0.11982   0.37212   0.00000  Uiso   1.00
H330   H     0.53764   0.21745   0.33003   0.00000  Uiso   1.00
H331   H     0.72452   0.26672   0.41004   0.00000  Uiso   1.00
H332   H     0.71160   0.16478   0.45217   0.00000  Uiso   1.00
H333   H     0.21077   0.05469   0.30683   0.00000  Uiso   1.00
H334   H     0.33215   0.05901   0.26858   0.00000  Uiso   1.00
H335   H     0.43494   0.09737   0.39625   0.00000  Uiso   1.00
H336   H     0.31562   0.10503   0.43163   0.00000  Uiso   1.00
B8     B     0.78153   0.73070   0.45825   0.00000  Uiso   1.00
C533   C     0.96454   0.57780   0.30502   0.00000  Uiso   1.00
C534   C     0.96331   0.61323   0.26589   0.00000  Uiso   1.00
C535   C     0.02597   0.62826   0.24398   0.00000  Uiso   1.00
C536   C     0.09157   0.61157   0.26201   0.00000  Uiso   1.00
C537   C     0.15414   0.63976   0.24628   0.00000  Uiso   1.00
C538   C     0.21930   0.62941   0.26728   0.00000  Uiso   1.00
C539   C     0.22401   0.58741   0.30249   0.00000  Uiso   1.00
C540   C     0.28818   0.58084   0.32576   0.00000  Uiso   1.00
C541   C     0.29005   0.54635   0.36473   0.00000  Uiso   1.00
C542   C     0.22902   0.51390   0.37915   0.00000  Uiso   1.00
C543   C     0.16254   0.55522   0.31724   0.00000  Uiso   1.00
C544   C     0.09373   0.57022   0.29842   0.00000  Uiso   1.00
C545   C     0.68698   0.57419   0.39768   0.00000  Uiso   1.00
C546   C     0.23585   0.48617   0.42433   0.00000  Uiso   1.00
C547   C     0.22847   0.42193   0.43237   0.00000  Uiso   1.00
C548   C     0.22878   0.39763   0.47622   0.00000  Uiso   1.00
C549   C     0.23710   0.43606   0.51357   0.00000  Uiso   1.00
C550   C     0.24663   0.49982   0.50520   0.00000  Uiso   1.00
C551   C     0.24804   0.52383   0.46182   0.00000  Uiso   1.00
C552   C     0.22171   0.41027   0.55943   0.00000  Uiso   1.00
C553   C     0.05232   0.34775   0.36252   0.00000  Uiso   1.00
C554   C     0.06877   0.29394   0.38639   0.00000  Uiso   1.00
C555   C     0.08033   0.29788   0.43098   0.00000  Uiso   1.00
C556   C     0.07676   0.35386   0.45118   0.00000  Uiso   1.00
C557   C     0.07873   0.35685   0.49680   0.00000  Uiso   1.00
C558   C     0.07609   0.41408   0.51733   0.00000  Uiso   1.00
C559   C     0.07661   0.46979   0.49312   0.00000  Uiso   1.00
C560   C     0.08987   0.52677   0.51345   0.00000  Uiso   1.00
C561   C     0.10546   0.57919   0.48799   0.00000  Uiso   1.00
C562   C     0.09628   0.57758   0.44224   0.00000  Uiso   1.00
C563   C     0.06732   0.46820   0.44723   0.00000  Uiso   1.00
C564   C     0.06520   0.40846   0.42565   0.00000  Uiso   1.00
C565   C     0.89180   0.28705   0.21239   0.00000  Uiso   1.00
C566   C     0.12826   0.81119   0.34550   0.00000  Uiso   1.00
Cu8    Cu    0.07250   0.49519   0.36551   0.00000  Uiso   1.00
F57    F     0.79913   0.76591   0.49632   0.00000  Uiso   1.00
F58    F     0.74629   0.76860   0.42662   0.00000  Uiso   1.00
F59    F     0.73640   0.68050   0.47059   0.00000  Uiso   1.00
F60    F     0.84529   0.70777   0.43943   0.00000  Uiso   1.00
N57    N     0.03030   0.55138   0.31811   0.00000  Uiso   1.00
N58    N     0.16856   0.51611   0.35280   0.00000  Uiso   1.00
N59    N     0.06352   0.40624   0.38150   0.00000  Uiso   1.00
N60    N     0.06975   0.52318   0.42406   0.00000  Uiso   1.00
N61    N     0.65476   0.52034   0.39922   0.00000  Uiso   1.00
N62    N     0.22881   0.44258   0.59601   0.00000  Uiso   1.00
N63    N     0.92313   0.28136   0.17427   0.00000  Uiso   1.00
N64    N     0.07089   0.84609   0.34693   0.00000  Uiso   1.00
F61    F     0.49159   0.11642  -0.03823   0.00000  Uiso   1.00
F62    F     0.43891   0.19143   0.00654   0.00000  Uiso   1.00
F63    F     0.05938   0.73020   0.48754   0.00000  Uiso   1.00
F64    F    -0.01922   0.65606   0.46337   0.00000  Uiso   1.00
C567   C     0.98025   0.32292   0.67589   0.00000  Uiso   1.00
C568   C     0.94868   0.30698   0.71567   0.00000  Uiso   1.00
C569   C     0.99025   0.28498   0.75044   0.00000  Uiso   1.00
C570   C     0.06469   0.28123   0.74670   0.00000  Uiso   1.00
C571   C     0.09681   0.29528   0.70640   0.00000  Uiso   1.00
C572   C     0.05454   0.31768   0.67143   0.00000  Uiso   1.00
C573   C     0.37149   0.99102   0.93692   0.00000  Uiso   1.00
C574   C     0.37882   0.92634   0.93763   0.00000  Uiso   1.00
C575   C     0.39661   0.89400   0.97613   0.00000  Uiso   1.00
C576   C     0.40629   0.92388   0.01504   0.00000  Uiso   1.00
C577   C     0.40605   0.99121   0.01545   0.00000  Uiso   1.00
C578   C     0.38553   0.02349   0.97672   0.00000  Uiso   1.00
C579   C     0.41053   0.88542   0.05629   0.00000  Uiso   1.00
C580   C     0.37013   0.90240   0.09321   0.00000  Uiso   1.00
C581   C     0.36161   0.86249   0.12974   0.00000  Uiso   1.00
C582   C     0.40242   0.80769   0.13246   0.00000  Uiso   1.00
C583   C     0.44242   0.79041   0.09555   0.00000  Uiso   1.00
C584   C     0.44613   0.82858   0.05839   0.00000  Uiso   1.00
C585   C     0.95361   0.90030   0.68303   0.00000  Uiso   1.00
C586   C     0.93146   0.89902   0.72592   0.00000  Uiso   1.00
C587   C     0.98045   0.91408   0.75977   0.00000  Uiso   1.00
C588   C     0.05215   0.92852   0.75169   0.00000  Uiso   1.00
C589   C     0.07191   0.93564   0.70726   0.00000  Uiso   1.00
C590   C     0.02274   0.92002   0.67354   0.00000  Uiso   1.00
C591   C     0.09686   0.93606   0.78659   0.00000  Uiso   1.00
C592   C     0.07199   0.94413   0.82937   0.00000  Uiso   1.00
C593   C     0.11508   0.94434   0.86615   0.00000  Uiso   1.00
C594   C     0.18723   0.93108   0.86412   0.00000  Uiso   1.00
C595   C     0.21654   0.92222   0.82130   0.00000  Uiso   1.00
C596   C     0.17166   0.92412   0.78272   0.00000  Uiso   1.00
C597   C     0.11491   0.63458   0.41524   0.00000  Uiso   1.00
C598   C     0.06897   0.65172   0.38176   0.00000  Uiso   1.00
C599   C     0.07571   0.70677   0.35850   0.00000  Uiso   1.00
C600   C     0.12844   0.75018   0.36901   0.00000  Uiso   1.00
C601   C     0.17832   0.73392   0.40196   0.00000  Uiso   1.00
C602   C     0.17123   0.67668   0.42519   0.00000  Uiso   1.00
C603   C     0.75487   0.58017   0.37188   0.00000  Uiso   1.00
C604   C     0.76072   0.56631   0.32686   0.00000  Uiso   1.00
C605   C     0.82833   0.56656   0.30581   0.00000  Uiso   1.00
C606   C     0.89301   0.57602   0.32965   0.00000  Uiso   1.00
C607   C     0.88547   0.58906   0.37498   0.00000  Uiso   1.00
C608   C     0.81795   0.59218   0.39508   0.00000  Uiso   1.00
H337   H     0.91012   0.63001   0.25177   0.00000  Uiso   1.00
H338   H     0.02372   0.65432   0.21116   0.00000  Uiso   1.00
H339   H     0.15192   0.67146   0.21605   0.00000  Uiso   1.00
H340   H     0.26927   0.65525   0.25580   0.00000  Uiso   1.00
H341   H     0.33912   0.60373   0.31284   0.00000  Uiso   1.00
H342   H     0.34129   0.54432   0.38515   0.00000  Uiso   1.00
H343   H     0.66334   0.61594   0.41587   0.00000  Uiso   1.00
H344   H     0.22209   0.38818   0.40352   0.00000  Uiso   1.00
H345   H     0.22213   0.34542   0.48194   0.00000  Uiso   1.00
H346   H     0.25349   0.53377   0.53389   0.00000  Uiso   1.00
H347   H     0.25956   0.57570   0.45764   0.00000  Uiso   1.00
H348   H     0.20300   0.35972   0.56091   0.00000  Uiso   1.00
H349   H     0.07249   0.24709   0.36874   0.00000  Uiso   1.00
H350   H     0.09289   0.25402   0.45081   0.00000  Uiso   1.00
H351   H     0.08252   0.31217   0.51708   0.00000  Uiso   1.00
H352   H     0.07339   0.41696   0.55493   0.00000  Uiso   1.00
H353   H     0.08800   0.53068   0.55102   0.00000  Uiso   1.00
H354   H     0.12578   0.62354   0.50454   0.00000  Uiso   1.00
H355   H     0.83179   0.29638   0.21410   0.00000  Uiso   1.00
H356   H     0.17739   0.82759   0.32640   0.00000  Uiso   1.00
H357   H     0.88833   0.31187   0.72004   0.00000  Uiso   1.00
H358   H     0.96370   0.26967   0.78259   0.00000  Uiso   1.00
H359   H     0.15692   0.28858   0.70199   0.00000  Uiso   1.00
H360   H     0.08151   0.33167   0.63911   0.00000  Uiso   1.00
H361   H     0.37022   0.89820   0.90610   0.00000  Uiso   1.00
H362   H     0.40331   0.84118   0.97523   0.00000  Uiso   1.00
H363   H     0.42223   0.01745   0.04667   0.00000  Uiso   1.00
H364   H     0.38036   0.07643   0.97785   0.00000  Uiso   1.00
H365   H     0.34281   0.94990   0.09438   0.00000  Uiso   1.00
H366   H     0.32172   0.87473   0.15691   0.00000  Uiso   1.00
H367   H     0.47282   0.74432   0.09545   0.00000  Uiso   1.00
H368   H     0.47957   0.81201   0.02914   0.00000  Uiso   1.00
H369   H     0.87386   0.88587   0.73416   0.00000  Uiso   1.00
H370   H     0.96209   0.91485   0.79571   0.00000  Uiso   1.00
H371   H     0.12741   0.95396   0.69850   0.00000  Uiso   1.00
H372   H     0.04118   0.92397   0.63772   0.00000  Uiso   1.00
H373   H     0.01238   0.95115   0.83567   0.00000  Uiso   1.00
H374   H     0.09145   0.95577   0.89994   0.00000  Uiso   1.00
H375   H     0.27636   0.91347   0.81718   0.00000  Uiso   1.00
H376   H     0.19646   0.91596   0.74877   0.00000  Uiso   1.00
H377   H     0.02273   0.61982   0.37212   0.00000  Uiso   1.00
H378   H     0.03764   0.71745   0.33003   0.00000  Uiso   1.00
H379   H     0.22452   0.76672   0.41004   0.00000  Uiso   1.00
H380   H     0.21160   0.66478   0.45217   0.00000  Uiso   1.00
H381   H     0.71077   0.55469   0.30683   0.00000  Uiso   1.00
H382   H     0.83215   0.55901   0.26858   0.00000  Uiso   1.00
H383   H     0.93494   0.59737   0.39625   0.00000  Uiso   1.00
H384   H     0.81562   0.60503   0.43163   0.00000  Uiso   1.00
B9     B     0.50000   0.65389   0.50000   0.00000  Uiso   1.00
B10    B     0.00000   0.15389   0.50000   0.00000  Uiso   1.00
B11    B     0.00000   0.65389   0.00000   0.00000  Uiso   1.00
B12    B     0.50000   0.15389   0.00000   0.00000  Uiso   1.00
B13    B     0.00000   0.19329   0.00000   0.00000  Uiso   1.00
B14    B     0.50000   0.69329   0.00000   0.00000  Uiso   1.00
B15    B     0.50000   0.19329   0.50000   0.00000  Uiso   1.00
B16    B     0.00000   0.69329   0.50000   0.00000  Uiso   1.00
loop_
_geom_bond_atom_site_label_1
_geom_bond_atom_site_label_2
_geom_bond_distance
_geom_bond_site_symmetry_2
_ccdc_geom_bond_type
B1     F4      1.409   .     S
B1     F3      1.418   .     S
B1     F1      1.416   .     S
B1     F2      1.418   .     S
C1     C2      1.407   .     S
C1     C74     1.530   .     S
C2     H1      1.140   .     S
C3     C4      1.388   .     S
C3     H2      1.140   .     S
C4     C12     1.415   .     S
C4     C5      1.399   .     S
C5     C6      1.391   .     S
C5     H3      1.140   .     S
C6     C7      1.398   .     S
C6     H4      1.140   .     S
C7     C8      1.397   .     S
C7     C11     1.412   .     S
C8     C9      1.392   .     S
C8     H5      1.140   .     S
C9     C10     1.405   .     S
C9     H6      1.140   .     S
C10    N2      1.383   .     S
C11    N2      1.369   .     S
C11    C12     1.442   .     S
C12    N1      1.386   .     S
C13    N5      1.303   .     S
C13    C71     1.495   .     S
C13    H7      1.140   .     S
C14    C15     1.406   .     S
C15    C16     1.425   .     S
C15    H8      1.140   .     S
C16    H9      1.140   .     S
C17    C18     1.402   .     S
C17    C20     1.521   .     S
C19    H11     1.140   .     S
C20    H12     1.140   .     S
C20    N6      1.312   .     S
C21    C22     1.396   .     S
C21    N3      1.395   .     S
C21    C187    1.415   .     S
C22    H13     1.140   .     S
C22    C23     1.368   .     S
C23    C24     1.349   .     S
C23    H14     1.140   .     S
C24    C25     1.382   .     S
C24    C32     1.419   .     S
C26    H16     1.140   .     S
C27    C31     1.399   .     S
C28    H17     1.140   .     S
C29    C30     1.395   .     S
C30    N4      1.382   .     S
C30    C65     1.511   .     S
C31    C32     1.438   .     S
C32    N3      1.337   .     S
C33    H19     1.140   .     S
C33    N7      1.299   .     S
C33    C190    1.486   .     S
C34    N8      1.308   .     S
C34    H20     1.140   .     S
C34    C68     1.489   .     S
Cu1    N3      1.975   .     S
N6     C594    1.456   .     S
N7     C126    1.438   .     S
N8     C205    1.544   .     S
F5     B9      1.417   .     S
F6     B9      1.411   .     S
F7     B13     1.414   .     S
F8     B13     1.412   .     S
C35    C36     1.383   .     S
C35    C173    1.415   .     S
C36    C37     1.390   .     S
C36    H21     1.140   .     S
C37    H22     1.140   .     S
C38    C39     1.392   .     S
C38    C185    1.486   .     S
C39    H23     1.140   .     S
C39    C40     1.405   .     S
C40    H24     1.140   .     S
C41    C42     1.394   .     S
C41    N45     1.391   .     S
C41    C46     1.415   .     S
C42    H25     1.140   .     S
C42    C43     1.396   .     S
C43    C44     1.352   .     S
C43    H26     1.140   .     S
C44    C45     1.444   .     S
C44    C47     1.498   .     S
C45    C46     1.414   .     S
C45    H27     1.140   .     S
C46    H28     1.140   .     S
C47    C52     1.390   .     S
C47    C48     1.396   .     S
C48    H29     1.140   .     S
C48    C49     1.407   .     S
C49    C50     1.403   .     S
C49    H30     1.140   .     S
C50    N15     1.438   .     S
C50    C51     1.394   .     S
C51    C52     1.392   .     S
C51    H31     1.140   .     S
C52    H32     1.140   .     S
C53    C54     1.362   .     S
C53    N24     1.544   .     S
C54    C55     1.411   .     S
C54    H33     1.140   .     S
C55    H34     1.140   .     S
C56    C57     1.402   .     S
C56    C59     1.356   .     S
C57    C58     1.413   .     S
C57    H35     1.140   .     S
C58    H36     1.140   .     S
C59    C60     1.386   .     S
C59    C64     1.426   .     S
C60    H37     1.140   .     S
C60    C61     1.373   .     S
C61    H38     1.140   .     S
C61    C62     1.379   .     S
C62    N62     1.456   .     S
C62    C63     1.419   .     S
C63    C64     1.437   .     S
C63    H39     1.140   .     S
C64    H40     1.140   .     S
C65    C70     1.419   .     S
C65    C66     1.377   .     S
C66    C67     1.380   .     S
C66    H41     1.140   .     S
C67    C68     1.392   .     S
C67    H42     1.140   .     S
C68    C69     1.408   .     S
C69    H43     1.140   .     S
C69    C70     1.421   .     S
C70    H44     1.140   .     S
C71    C72     1.398   .     S
C71    C76     1.396   .     S
C72    C73     1.415   .     S
C72    H45     1.140   .     S
C73    H46     1.140   .     S
C73    C74     1.422   .     S
C74    C75     1.406   .     S
C75    C76     1.402   .     S
C75    H47     1.140   .     S
C76    H48     1.140   .     S
B2     F10     1.418   .     S
B2     F11     1.418   .     S
B2     F9      1.416   .     S
B2     F12     1.409   .     S
C77    C78     1.407   .     S
C77    N9      1.410   .     S
C77    C150    1.530   .     S
C78    C79     1.383   .     S
C78    H49     1.140   .     S
C79    C80     1.388   .     S
C79    H50     1.140   .     S
C80    C88     1.415   .     S
C80    C81     1.399   .     S
C81    C82     1.391   .     S
C81    H51     1.140   .     S
C82    C83     1.398   .     S
C82    H52     1.140   .     S
C83    C87     1.412   .     S
C83    C84     1.397   .     S
C84    C85     1.392   .     S
C84    H53     1.140   .     S
C85    H54     1.140   .     S
C85    C86     1.405   .     S
C86    N10     1.383   .     S
C86    C90     1.496   .     S
C87    N10     1.369   .     S
C87    C88     1.442   .     S
C88    N9      1.386   .     S
C89    N13     1.303   .     S
C89    C147    1.495   .     S
C89    H55     1.140   .     S
C90    C91     1.406   .     S
C90    C95     1.411   .     S
C91    C92     1.425   .     S
C91    H56     1.140   .     S
C92    H57     1.140   .     S
C93    C96     1.521   .     S
C93    C94     1.402   .     S
C94    H58     1.140   .     S
C95    H59     1.140   .     S
C96    H60     1.140   .     S
C96    N14     1.312   .     S
C97    C98     1.396   .     S
C97    C263    1.415   .     S
C97    N11     1.395   .     S
C98    H61     1.140   .     S
C98    C99     1.368   .     S
C99    C100    1.349   .     S
C99    H62     1.140   .     S
C100   C101    1.382   .     S
C100   C108    1.419   .     S
C102   H64     1.140   .     S
C103   C107    1.399   .     S
C104   H65     1.140   .     S
C105   C106    1.395   .     S
C106   C141    1.511   .     S
C106   N12     1.382   .     S
C107   C108    1.438   .     S
C107   N12     1.372   .     S
C108   N11     1.337   .     S
C109   N15     1.299   .     S
C109   H67     1.140   .     S
C109   C266    1.486   .     S
C110   H68     1.140   .     S
C110   N16     1.308   .     S
C110   C144    1.489   .     S
Cu2    N11     1.975   .     S
Cu2    N10     1.889   .     S
Cu2    N9      2.032   .     S
Cu2    N12     1.871   .     S
N13    C345    1.391   .     S
N14    C518    1.456   .     S
N16    C281    1.544   .     S
F13    B10     1.417   .     S
F14    B10     1.411   .     S
F15    B14     1.414   .     S
F16    B14     1.412   .     S
C111   C112    1.383   .     S
C111   C116    1.399   .     S
C111   C249    1.415   .     S
C112   C113    1.390   .     S
C112   H69     1.140   .     S
C113   C114    1.398   .     S
C113   H70     1.140   .     S
C114   C115    1.392   .     S
C114   C261    1.486   .     S
C115   H71     1.140   .     S
C115   C116    1.405   .     S
C116   H72     1.140   .     S
C117   C118    1.394   .     S
C118   H73     1.140   .     S
C118   C119    1.396   .     S
C119   H74     1.140   .     S
C119   C120    1.352   .     S
C120   C121    1.444   .     S
C120   C123    1.498   .     S
C122   H76     1.140   .     S
C123   C128    1.390   .     S
C123   C124    1.396   .     S
C124   C125    1.407   .     S
C124   H77     1.140   .     S
C125   H78     1.140   .     S
C125   C126    1.403   .     S
C126   C127    1.394   .     S
C127   C128    1.392   .     S
C127   H79     1.140   .     S
C128   H80     1.140   .     S
C129   C130    1.362   .     S
C129   C134    1.389   .     S
C129   N32     1.544   .     S
C130   H81     1.140   .     S
C130   C131    1.411   .     S
C131   C132    1.396   .     S
C131   H82     1.140   .     S
C132   C133    1.402   .     S
C132   C135    1.356   .     S
C133   C134    1.413   .     S
C133   H83     1.140   .     S
C134   H84     1.140   .     S
C135   C140    1.426   .     S
C135   C136    1.386   .     S
C136   H85     1.140   .     S
C136   C137    1.373   .     S
C137   C138    1.379   .     S
C137   H86     1.140   .     S
C138   N54     1.456   .     S
C138   C139    1.419   .     S
C139   C140    1.437   .     S
C139   H87     1.140   .     S
C140   H88     1.140   .     S
C141   C146    1.419   .     S
C141   C142    1.377   .     S
C142   C143    1.380   .     S
C142   H89     1.140   .     S
C143   H90     1.140   .     S
C143   C144    1.392   .     S
C144   C145    1.408   .     S
C145   C146    1.421   .     S
C145   H91     1.140   .     S
C146   H92     1.140   .     S
C147   C148    1.398   .     S
C147   C152    1.396   .     S
C148   H93     1.140   .     S
C148   C149    1.415   .     S
C149   H94     1.140   .     S
C149   C150    1.422   .     S
C150   C151    1.406   .     S
C151   C152    1.402   .     S
C151   H95     1.140   .     S
C152   H96     1.140   .     S
B3     F19     1.418   .     S
B3     F20     1.409   .     S
B3     F17     1.416   .     S
B3     F18     1.418   .     S
C153   C154    1.407   .     S
C153   C226    1.530   .     S
C154   H97     1.140   .     S
C155   C156    1.388   .     S
C155   H98     1.140   .     S
C156   C164    1.415   .     S
C156   C157    1.399   .     S
C157   C158    1.391   .     S
C157   H99     1.140   .     S
C158   C159    1.398   .     S
C158   H100    1.140   .     S
C159   C163    1.412   .     S
C159   C160    1.397   .     S
C160   H101    1.140   .     S
C160   C161    1.392   .     S
C161   H102    1.140   .     S
C161   C162    1.405   .     S
C162   N18     1.383   .     S
C163   C164    1.442   .     S
C163   N18     1.369   .     S
C164   N17     1.386   .     S
C165   N21     1.303   .     S
C165   H103    1.140   .     S
C165   C223    1.495   .     S
C166   C167    1.406   .     S
C167   C168    1.425   .     S
C167   H104    1.140   .     S
C168   H105    1.140   .     S
C169   C170    1.402   .     S
C169   C172    1.521   .     S
C171   H107    1.140   .     S
C172   H108    1.140   .     S
C172   N22     1.312   .     S
C173   C174    1.396   .     S
C173   N19     1.395   .     S
C174   H109    1.140   .     S
C174   C175    1.368   .     S
C175   C176    1.349   .     S
C175   H110    1.140   .     S
C176   C177    1.382   .     S
C176   C184    1.419   .     S
C178   H112    1.140   .     S
C179   C183    1.399   .     S
C180   H113    1.140   .     S
C181   C182    1.395   .     S
C182   N20     1.382   .     S
C182   C217    1.511   .     S
C183   C184    1.438   .     S
C184   N19     1.337   .     S
C185   N23     1.299   .     S
C185   H115    1.140   .     S
C186   N24     1.308   .     S
C186   C220    1.489   .     S
C186   H116    1.140   .     S
Cu3    N19     1.975   .     S
N22    C442    1.456   .     S
N23    C278    1.438   .     S
F21    B9      1.417   .     S
F22    B9      1.411   .     S
F23    B13     1.414   .     S
F24    B13     1.412   .     S
C187   C188    1.383   .     S
C188   C189    1.390   .     S
C188   H117    1.140   .     S
C189   H118    1.140   .     S
C190   C191    1.392   .     S
C191   H119    1.140   .     S
C191   C192    1.405   .     S
C192   H120    1.140   .     S
C193   C194    1.394   .     S
C193   N61     1.391   .     S
C193   C198    1.415   .     S
C194   H121    1.140   .     S
C194   C195    1.396   .     S
C195   C196    1.352   .     S
C195   H122    1.140   .     S
C196   C197    1.444   .     S
C196   C199    1.498   .     S
C197   H123    1.140   .     S
C197   C198    1.414   .     S
C198   H124    1.140   .     S
C199   C204    1.390   .     S
C199   C200    1.396   .     S
C200   H125    1.140   .     S
C200   C201    1.407   .     S
C201   C202    1.403   .     S
C201   H126    1.140   .     S
C202   C203    1.394   .     S
C202   N31     1.438   .     S
C203   C204    1.392   .     S
C203   H127    1.140   .     S
C204   H128    1.140   .     S
C205   C206    1.362   .     S
C206   C207    1.411   .     S
C206   H129    1.140   .     S
C207   H130    1.140   .     S
C208   C209    1.402   .     S
C208   C211    1.356   .     S
C209   H131    1.140   .     S
C209   C210    1.413   .     S
C210   H132    1.140   .     S
C211   C212    1.386   .     S
C211   C216    1.426   .     S
C212   H133    1.140   .     S
C212   C213    1.373   .     S
C213   C214    1.379   .     S
C213   H134    1.140   .     S
C214   C215    1.419   .     S
C214   N46     1.456   .     S
C215   C216    1.437   .     S
C215   H135    1.140   .     S
C216   H136    1.140   .     S
C217   C218    1.377   .     S
C217   C222    1.419   .     S
C218   C219    1.380   .     S
C218   H137    1.140   .     S
C219   H138    1.140   .     S
C219   C220    1.392   .     S
C220   C221    1.408   .     S
C221   H139    1.140   .     S
C221   C222    1.421   .     S
C222   H140    1.140   .     S
C223   C228    1.396   .     S
C223   C224    1.398   .     S
C224   C225    1.415   .     S
C224   H141    1.140   .     S
C225   H142    1.140   .     S
C225   C226    1.422   .     S
C226   C227    1.406   .     S
C227   H143    1.140   .     S
C227   C228    1.402   .     S
C228   H144    1.140   .     S
B4     F25     1.416   .     S
B4     F28     1.409   .     S
B4     F26     1.418   .     S
B4     F27     1.418   .     S
C229   C230    1.407   .     S
C229   N25     1.410   .     S
C229   C302    1.530   .     S
C230   C231    1.383   .     S
C230   H145    1.140   .     S
C231   C232    1.388   .     S
C231   H146    1.140   .     S
C232   C233    1.399   .     S
C232   C240    1.415   .     S
C233   C234    1.391   .     S
C233   H147    1.140   .     S
C234   C235    1.398   .     S
C234   H148    1.140   .     S
C235   C236    1.397   .     S
C235   C239    1.412   .     S
C236   H149    1.140   .     S
C236   C237    1.392   .     S
C237   H150    1.140   .     S
C237   C238    1.405   .     S
C238   N26     1.383   .     S
C238   C242    1.496   .     S
C239   C240    1.442   .     S
C239   N26     1.369   .     S
C240   N25     1.386   .     S
C241   N29     1.303   .     S
C241   C299    1.495   .     S
C241   H151    1.140   .     S
C242   C243    1.406   .     S
C242   C247    1.411   .     S
C243   C244    1.425   .     S
C243   H152    1.140   .     S
C244   H153    1.140   .     S
C245   C246    1.402   .     S
C245   C248    1.521   .     S
C246   H154    1.140   .     S
C247   H155    1.140   .     S
C248   H156    1.140   .     S
C248   N30     1.312   .     S
C249   C250    1.396   .     S
C249   N27     1.395   .     S
C250   H157    1.140   .     S
C250   C251    1.368   .     S
C251   C252    1.349   .     S
C251   H158    1.140   .     S
C252   C253    1.382   .     S
C252   C260    1.419   .     S
C254   H160    1.140   .     S
C255   C259    1.399   .     S
C256   H161    1.140   .     S
C257   C258    1.395   .     S
C258   N28     1.382   .     S
C258   C293    1.511   .     S
C259   C260    1.438   .     S
C259   N28     1.372   .     S
C260   N27     1.337   .     S
C261   H163    1.140   .     S
C261   N31     1.299   .     S
C262   N32     1.308   .     S
C262   C296    1.489   .     S
C262   H164    1.140   .     S
Cu4    N26     1.889   .     S
Cu4    N27     1.975   .     S
Cu4    N25     2.032   .     S
Cu4    N28     1.871   .     S
N29    C497    1.391   .     S
N30    C366    1.456   .     S
F29    B10     1.417   .     S
F30    B10     1.411   .     S
F31    B14     1.414   .     S
F32    B14     1.412   .     S
C263   C268    1.399   .     S
C263   C264    1.383   .     S
C264   C265    1.390   .     S
C264   H165    1.140   .     S
C265   C266    1.398   .     S
C265   H166    1.140   .     S
C266   C267    1.392   .     S
C267   H167    1.140   .     S
C267   C268    1.405   .     S
C268   H168    1.140   .     S
C269   C270    1.394   .     S
C270   H169    1.140   .     S
C270   C271    1.396   .     S
C271   H170    1.140   .     S
C271   C272    1.352   .     S
C272   C273    1.444   .     S
C272   C275    1.498   .     S
C274   H172    1.140   .     S
C275   C276    1.396   .     S
C275   C280    1.390   .     S
C276   C277    1.407   .     S
C276   H173    1.140   .     S
C277   C278    1.403   .     S
C277   H174    1.140   .     S
C278   C279    1.394   .     S
C279   C280    1.392   .     S
C279   H175    1.140   .     S
C280   H176    1.140   .     S
C281   C286    1.389   .     S
C281   C282    1.362   .     S
C282   H177    1.140   .     S
C282   C283    1.411   .     S
C283   C284    1.396   .     S
C283   H178    1.140   .     S
C284   C285    1.402   .     S
C284   C287    1.356   .     S
C285   H179    1.140   .     S
C285   C286    1.413   .     S
C286   H180    1.140   .     S
C287   C288    1.386   .     S
C287   C292    1.426   .     S
C288   C289    1.373   .     S
C288   H181    1.140   .     S
C289   C290    1.379   .     S
C289   H182    1.140   .     S
C290   C291    1.419   .     S
C290   N38     1.456   .     S
C291   H183    1.140   .     S
C291   C292    1.437   .     S
C292   H184    1.140   .     S
C293   C294    1.377   .     S
C293   C298    1.419   .     S
C294   C295    1.380   .     S
C294   H185    1.140   .     S
C295   C296    1.392   .     S
C295   H186    1.140   .     S
C296   C297    1.408   .     S
C297   H187    1.140   .     S
C297   C298    1.421   .     S
C298   H188    1.140   .     S
C299   C304    1.396   .     S
C299   C300    1.398   .     S
C300   C301    1.415   .     S
C300   H189    1.140   .     S
C301   H190    1.140   .     S
C301   C302    1.422   .     S
C302   C303    1.406   .     S
C303   C304    1.402   .     S
C303   H191    1.140   .     S
C304   H192    1.140   .     S
B5     F35     1.418   .     S
B5     F33     1.416   .     S
B5     F34     1.418   .     S
B5     F36     1.409   .     S
C305   C306    1.407   .     S
C305   N33     1.410   .     S
C305   C378    1.530   .     S
C306   H193    1.140   .     S
C306   C307    1.383   .     S
C307   C308    1.388   .     S
C307   H194    1.140   .     S
C308   C309    1.399   .     S
C308   C316    1.415   .     S
C309   H195    1.140   .     S
C309   C310    1.391   .     S
C310   C311    1.398   .     S
C310   H196    1.140   .     S
C311   C312    1.397   .     S
C311   C315    1.412   .     S
C312   H197    1.140   .     S
C312   C313    1.392   .     S
C313   C314    1.405   .     S
C313   H198    1.140   .     S
C314   N34     1.383   .     S
C315   C316    1.442   .     S
C315   N34     1.369   .     S
C316   N33     1.386   .     S
C317   N37     1.303   .     S
C317   C375    1.495   .     S
C317   H199    1.140   .     S
C318   C319    1.406   .     S
C319   H200    1.140   .     S
C319   C320    1.425   .     S
C320   H201    1.140   .     S
C320   C321    1.407   .     S
C321   C322    1.402   .     S
C321   C324    1.521   .     S
C323   H203    1.140   .     S
C324   N38     1.312   .     S
C324   H204    1.140   .     S
C325   C326    1.396   .     S
C325   N35     1.395   .     S
C325   C491    1.415   .     S
C326   C327    1.368   .     S
C326   H205    1.140   .     S
C327   C328    1.349   .     S
C327   H206    1.140   .     S
C328   C329    1.382   .     S
C328   C336    1.419   .     S
C329   H207    1.140   .     S
C329   C330    1.376   .     S
C330   C331    1.401   .     S
C330   H208    1.140   .     S
C331   C335    1.399   .     S
C332   C333    1.393   .     S
C332   H209    1.140   .     S
C333   H210    1.140   .     S
C333   C334    1.395   .     S
C334   N36     1.382   .     S
C334   C369    1.511   .     S
C335   C336    1.438   .     S
C336   N35     1.337   .     S
C337   H211    1.140   .     S
C337   N39     1.299   .     S
C337   C494    1.486   .     S
C338   N40     1.308   .     S
C338   H212    1.140   .     S
C338   C372    1.489   .     S
Cu5    N35     1.975   .     S
N39    C430    1.438   .     S
N40    C509    1.544   .     S
F37    B11     1.417   .     S
F38    B11     1.411   .     S
F39    B15     1.414   .     S
F40    B15     1.412   .     S
C339   C340    1.383   .     S
C339   C477    1.415   .     S
C339   C344    1.399   .     S
C340   H213    1.140   .     S
C340   C341    1.390   .     S
C341   C342    1.398   .     S
C341   H214    1.140   .     S
C342   C489    1.486   .     S
C342   C343    1.392   .     S
C343   C344    1.405   .     S
C343   H215    1.140   .     S
C344   H216    1.140   .     S
C345   C346    1.394   .     S
C345   C350    1.415   .     S
C346   C347    1.396   .     S
C346   H217    1.140   .     S
C347   H218    1.140   .     S
C348   C349    1.444   .     S
C348   C351    1.498   .     S
C349   H219    1.140   .     S
C350   H220    1.140   .     S
C351   C356    1.390   .     S
C351   C352    1.396   .     S
C352   H221    1.140   .     S
C352   C353    1.407   .     S
C353   C354    1.403   .     S
C353   H222    1.140   .     S
C354   C355    1.394   .     S
C354   N47     1.438   .     S
C355   H223    1.140   .     S
C355   C356    1.392   .     S
C356   H224    1.140   .     S
C357   C362    1.389   .     S
C357   N56     1.544   .     S
C357   C358    1.362   .     S
C358   C359    1.411   .     S
C358   H225    1.140   .     S
C359   C360    1.396   .     S
C359   H226    1.140   .     S
C360   C363    1.356   .     S
C360   C361    1.402   .     S
C361   H227    1.140   .     S
C361   C362    1.413   .     S
C362   H228    1.140   .     S
C363   C368    1.426   .     S
C363   C364    1.386   .     S
C364   C365    1.373   .     S
C364   H229    1.140   .     S
C365   C366    1.379   .     S
C365   H230    1.140   .     S
C366   C367    1.419   .     S
C367   H231    1.140   .     S
C367   C368    1.437   .     S
C368   H232    1.140   .     S
C369   C370    1.377   .     S
C369   C374    1.419   .     S
C370   C371    1.380   .     S
C370   H233    1.140   .     S
C371   C372    1.392   .     S
C371   H234    1.140   .     S
C372   C373    1.408   .     S
C373   C374    1.421   .     S
C373   H235    1.140   .     S
C374   H236    1.140   .     S
C375   C380    1.396   .     S
C375   C376    1.398   .     S
C376   C377    1.415   .     S
C376   H237    1.140   .     S
C377   C378    1.422   .     S
C377   H238    1.140   .     S
C378   C379    1.406   .     S
C379   C380    1.402   .     S
C379   H239    1.140   .     S
C380   H240    1.140   .     S
B6     F41     1.416   .     S
B6     F43     1.418   .     S
B6     F42     1.418   .     S
B6     F44     1.409   .     S
C381   C382    1.407   .     S
C381   C454    1.530   .     S
C382   H241    1.140   .     S
C383   C384    1.388   .     S
C383   H242    1.140   .     S
C384   C385    1.399   .     S
C384   C392    1.415   .     S
C385   H243    1.140   .     S
C385   C386    1.391   .     S
C386   C387    1.398   .     S
C386   H244    1.140   .     S
C387   C391    1.412   .     S
C387   C388    1.397   .     S
C388   H245    1.140   .     S
C388   C389    1.392   .     S
C389   H246    1.140   .     S
C389   C390    1.405   .     S
C390   C394    1.496   .     S
C390   N42     1.383   .     S
C391   C392    1.442   .     S
C391   N42     1.369   .     S
C392   N41     1.386   .     S
C393   N45     1.303   .     S
C393   H247    1.140   .     S
C393   C451    1.495   .     S
C394   C395    1.406   .     S
C394   C399    1.411   .     S
C395   H248    1.140   .     S
C395   C396    1.425   .     S
C396   C397    1.407   .     S
C396   H249    1.140   .     S
C397   C398    1.402   .     S
C397   C400    1.521   .     S
C398   C399    1.410   .     S
C398   H250    1.140   .     S
C399   H251    1.140   .     S
C400   N46     1.312   .     S
C400   H252    1.140   .     S
C401   C402    1.396   .     S
C401   N43     1.395   .     S
C401   C567    1.415   .     S
C402   C403    1.368   .     S
C402   H253    1.140   .     S
C403   C404    1.349   .     S
C403   H254    1.140   .     S
C404   C405    1.382   .     S
C404   C412    1.419   .     S
C405   H255    1.140   .     S
C405   C406    1.376   .     S
C406   C407    1.401   .     S
C406   H256    1.140   .     S
C407   C408    1.390   .     S
C407   C411    1.399   .     S
C408   C409    1.393   .     S
C408   H257    1.140   .     S
C409   H258    1.140   .     S
C409   C410    1.395   .     S
C410   N44     1.382   .     S
C410   C445    1.511   .     S
C411   C412    1.438   .     S
C411   N44     1.372   .     S
C412   N43     1.337   .     S
C413   N47     1.299   .     S
C413   C570    1.486   .     S
C413   H259    1.140   .     S
C414   H260    1.140   .     S
C414   N48     1.308   .     S
C414   C448    1.489   .     S
Cu6    N43     1.975   .     S
Cu6    N44     1.871   .     S
Cu6    N41     2.032   .     S
Cu6    N42     1.889   .     S
N48    C585    1.544   .     S
F45    B12     1.417   .     S
F46    B12     1.411   .     S
F47    B16     1.414   .     S
F48    B16     1.412   .     S
C415   C416    1.383   .     S
C415   C553    1.415   .     S
C416   H261    1.140   .     S
C416   C417    1.390   .     S
C417   H262    1.140   .     S
C418   C565    1.486   .     S
C418   C419    1.392   .     S
C419   C420    1.405   .     S
C419   H263    1.140   .     S
C420   H264    1.140   .     S
C421   C422    1.394   .     S
C422   C423    1.396   .     S
C422   H265    1.140   .     S
C423   H266    1.140   .     S
C424   C425    1.444   .     S
C424   C427    1.498   .     S
C426   H268    1.140   .     S
C427   C432    1.390   .     S
C427   C428    1.396   .     S
C428   C429    1.407   .     S
C428   H269    1.140   .     S
C429   C430    1.403   .     S
C429   H270    1.140   .     S
C430   C431    1.394   .     S
C431   H271    1.140   .     S
C431   C432    1.392   .     S
C432   H272    1.140   .     S
C433   N64     1.544   .     S
C433   C434    1.362   .     S
C434   H273    1.140   .     S
C434   C435    1.411   .     S
C435   H274    1.140   .     S
C436   C439    1.356   .     S
C436   C437    1.402   .     S
C437   C438    1.413   .     S
C437   H275    1.140   .     S
C438   H276    1.140   .     S
C439   C444    1.426   .     S
C439   C440    1.386   .     S
C440   H277    1.140   .     S
C440   C441    1.373   .     S
C441   C442    1.379   .     S
C441   H278    1.140   .     S
C442   C443    1.419   .     S
C443   H279    1.140   .     S
C443   C444    1.437   .     S
C444   H280    1.140   .     S
C445   C450    1.419   .     S
C445   C446    1.377   .     S
C446   C447    1.380   .     S
C446   H281    1.140   .     S
C447   C448    1.392   .     S
C447   H282    1.140   .     S
C448   C449    1.408   .     S
C449   C450    1.421   .     S
C449   H283    1.140   .     S
C450   H284    1.140   .     S
C451   C456    1.396   .     S
C451   C452    1.398   .     S
C452   C453    1.415   .     S
C452   H285    1.140   .     S
C453   H286    1.140   .     S
C453   C454    1.422   .     S
C454   C455    1.406   .     S
C455   H287    1.140   .     S
C455   C456    1.402   .     S
C456   H288    1.140   .     S
B7     F52     1.409   .     S
B7     F50     1.418   .     S
B7     F49     1.416   .     S
B7     F51     1.418   .     S
C457   N49     1.410   .     S
C457   C530    1.530   .     S
C457   C458    1.407   .     S
C458   C459    1.383   .     S
C458   H289    1.140   .     S
C459   C460    1.388   .     S
C459   H290    1.140   .     S
C460   C461    1.399   .     S
C460   C468    1.415   .     S
C461   H291    1.140   .     S
C461   C462    1.391   .     S
C462   H292    1.140   .     S
C462   C463    1.398   .     S
C463   C467    1.412   .     S
C463   C464    1.397   .     S
C464   C465    1.392   .     S
C464   H293    1.140   .     S
C465   H294    1.140   .     S
C465   C466    1.405   .     S
C466   N50     1.383   .     S
C467   N50     1.369   .     S
C467   C468    1.442   .     S
C468   N49     1.386   .     S
C469   N53     1.303   .     S
C469   C527    1.495   .     S
C469   H295    1.140   .     S
C470   C471    1.406   .     S
C471   H296    1.140   .     S
C471   C472    1.425   .     S
C472   H297    1.140   .     S
C472   C473    1.407   .     S
C473   C474    1.402   .     S
C473   C476    1.521   .     S
C475   H299    1.140   .     S
C476   N54     1.312   .     S
C476   H300    1.140   .     S
C477   C478    1.396   .     S
C477   N51     1.395   .     S
C478   C479    1.368   .     S
C478   H301    1.140   .     S
C479   C480    1.349   .     S
C479   H302    1.140   .     S
C480   C488    1.419   .     S
C480   C481    1.382   .     S
C481   H303    1.140   .     S
C481   C482    1.376   .     S
C482   C483    1.401   .     S
C482   H304    1.140   .     S
C483   C487    1.399   .     S
C484   H305    1.140   .     S
C484   C485    1.393   .     S
C485   H306    1.140   .     S
C485   C486    1.395   .     S
C486   N52     1.382   .     S
C486   C521    1.511   .     S
C487   C488    1.438   .     S
C488   N51     1.337   .     S
C489   H307    1.140   .     S
C489   N55     1.299   .     S
C490   H308    1.140   .     S
C490   N56     1.308   .     S
C490   C524    1.489   .     S
Cu7    N51     1.975   .     S
N55    C582    1.438   .     S
F53    B11     1.417   .     S
F54    B11     1.411   .     S
F55    B15     1.414   .     S
F56    B15     1.412   .     S
C491   C492    1.383   .     S
C491   C496    1.399   .     S
C492   H309    1.140   .     S
C492   C493    1.390   .     S
C493   C494    1.398   .     S
C493   H310    1.140   .     S
C494   C495    1.392   .     S
C495   H311    1.140   .     S
C495   C496    1.405   .     S
C496   H312    1.140   .     S
C497   C498    1.394   .     S
C497   C502    1.415   .     S
C498   C499    1.396   .     S
C498   H313    1.140   .     S
C499   H314    1.140   .     S
C500   C501    1.444   .     S
C500   C503    1.498   .     S
C501   H315    1.140   .     S
C502   H316    1.140   .     S
C503   C508    1.390   .     S
C503   C504    1.396   .     S
C504   H317    1.140   .     S
C504   C505    1.407   .     S
C505   H318    1.140   .     S
C505   C506    1.403   .     S
C506   C507    1.394   .     S
C506   N63     1.438   .     S
C507   H319    1.140   .     S
C507   C508    1.392   .     S
C508   H320    1.140   .     S
C509   C514    1.389   .     S
C509   C510    1.362   .     S
C510   H321    1.140   .     S
C510   C511    1.411   .     S
C511   C512    1.396   .     S
C511   H322    1.140   .     S
C512   C515    1.356   .     S
C512   C513    1.402   .     S
C513   C514    1.413   .     S
C513   H323    1.140   .     S
C514   H324    1.140   .     S
C515   C520    1.426   .     S
C515   C516    1.386   .     S
C516   H325    1.140   .     S
C516   C517    1.373   .     S
C517   C518    1.379   .     S
C517   H326    1.140   .     S
C518   C519    1.419   .     S
C519   C520    1.437   .     S
C519   H327    1.140   .     S
C520   H328    1.140   .     S
C521   C526    1.419   .     S
C521   C522    1.377   .     S
C522   H329    1.140   .     S
C522   C523    1.380   .     S
C523   H330    1.140   .     S
C523   C524    1.392   .     S
C524   C525    1.408   .     S
C525   C526    1.421   .     S
C525   H331    1.140   .     S
C526   H332    1.140   .     S
C527   C532    1.396   .     S
C527   C528    1.398   .     S
C528   H333    1.140   .     S
C528   C529    1.415   .     S
C529   C530    1.422   .     S
C529   H334    1.140   .     S
C530   C531    1.406   .     S
C531   C532    1.402   .     S
C531   H335    1.140   .     S
C532   H336    1.140   .     S
B8     F58     1.418   .     S
B8     F60     1.409   .     S
B8     F57     1.416   .     S
B8     F59     1.418   .     S
C533   C606    1.530   .     S
C533   C534    1.407   .     S
C534   H337    1.140   .     S
C535   C536    1.388   .     S
C535   H338    1.140   .     S
C536   C537    1.399   .     S
C536   C544    1.415   .     S
C537   C538    1.391   .     S
C537   H339    1.140   .     S
C538   H340    1.140   .     S
C538   C539    1.398   .     S
C539   C540    1.397   .     S
C539   C543    1.412   .     S
C540   C541    1.392   .     S
C540   H341    1.140   .     S
C541   H342    1.140   .     S
C541   C542    1.405   .     S
C542   C546    1.496   .     S
C542   N58     1.383   .     S
C543   C544    1.442   .     S
C543   N58     1.369   .     S
C544   N57     1.386   .     S
C545   N61     1.303   .     S
C545   H343    1.140   .     S
C545   C603    1.495   .     S
C546   C547    1.406   .     S
C546   C551    1.411   .     S
C547   H344    1.140   .     S
C547   C548    1.425   .     S
C548   C549    1.407   .     S
C548   H345    1.140   .     S
C549   C550    1.402   .     S
C549   C552    1.521   .     S
C550   C551    1.410   .     S
C550   H346    1.140   .     S
C551   H347    1.140   .     S
C552   N62     1.312   .     S
C552   H348    1.140   .     S
C553   N59     1.395   .     S
C553   C554    1.396   .     S
C554   C555    1.368   .     S
C554   H349    1.140   .     S
C555   C556    1.349   .     S
C555   H350    1.140   .     S
C556   C564    1.419   .     S
C556   C557    1.382   .     S
C557   H351    1.140   .     S
C557   C558    1.376   .     S
C558   C559    1.401   .     S
C558   H352    1.140   .     S
C559   C560    1.390   .     S
C559   C563    1.399   .     S
C560   C561    1.393   .     S
C560   H353    1.140   .     S
C561   H354    1.140   .     S
C561   C562    1.395   .     S
C562   N60     1.382   .     S
C562   C597    1.511   .     S
C563   C564    1.438   .     S
C563   N60     1.372   .     S
C564   N59     1.337   .     S
C565   H355    1.140   .     S
C565   N63     1.299   .     S
C566   N64     1.308   .     S
C566   H356    1.140   .     S
C566   C600    1.489   .     S
Cu8    N58     1.889   .     S
Cu8    N57     2.032   .     S
Cu8    N60     1.871   .     S
Cu8    N59     1.975   .     S
F61    B12     1.417   .     S
F62    B12     1.411   .     S
F63    B16     1.414   .     S
F64    B16     1.412   .     S
C567   C568    1.383   .     S
C568   H357    1.140   .     S
C568   C569    1.390   .     S
C569   H358    1.140   .     S
C570   C571    1.392   .     S
C571   C572    1.405   .     S
C571   H359    1.140   .     S
C572   H360    1.140   .     S
C573   C574    1.394   .     S
C574   C575    1.396   .     S
C574   H361    1.140   .     S
C575   H362    1.140   .     S
C576   C577    1.444   .     S
C576   C579    1.498   .     S
C578   H364    1.140   .     S
C579   C584    1.390   .     S
C579   C580    1.396   .     S
C580   C581    1.407   .     S
C580   H365    1.140   .     S
C581   C582    1.403   .     S
C581   H366    1.140   .     S
C582   C583    1.394   .     S
C583   H367    1.140   .     S
C583   C584    1.392   .     S
C584   H368    1.140   .     S
C585   C586    1.362   .     S
C586   H369    1.140   .     S
C586   C587    1.411   .     S
C587   H370    1.140   .     S
C588   C591    1.356   .     S
C588   C589    1.402   .     S
C589   C590    1.413   .     S
C589   H371    1.140   .     S
C590   H372    1.140   .     S
C591   C596    1.426   .     S
C591   C592    1.386   .     S
C592   C593    1.373   .     S
C592   H373    1.140   .     S
C593   H374    1.140   .     S
C593   C594    1.379   .     S
C594   C595    1.419   .     S
C595   C596    1.437   .     S
C595   H375    1.140   .     S
C596   H376    1.140   .     S
C597   C598    1.377   .     S
C597   C602    1.419   .     S
C598   H377    1.140   .     S
C598   C599    1.380   .     S
C599   H378    1.140   .     S
C599   C600    1.392   .     S
C600   C601    1.408   .     S
C601   C602    1.421   .     S
C601   H379    1.140   .     S
C602   H380    1.140   .     S
C603   C608    1.396   .     S
C603   C604    1.398   .     S
C604   C605    1.415   .     S
C604   H381    1.140   .     S
C605   C606    1.422   .     S
C605   H382    1.140   .     S
C606   C607    1.406   .     S
C607   C608    1.402   .     S
C607   H383    1.140   .     S
C608   H384    1.140   .     S
