data_Tp-Por-COF-AB
_audit_creation_date              2016-12-13
_audit_creation_method            'Materials Studio'
_symmetry_space_group_name_H-M    'P1'
_symmetry_Int_Tables_number       1
_symmetry_cell_setting            triclinic
loop_
_symmetry_equiv_pos_as_xyz
  x,y,z
_cell_length_a                    52.2000
_cell_length_b                    52.2000
_cell_length_c                    6.5000
_cell_angle_alpha                 90.0000
_cell_angle_beta                  90.0000
_cell_angle_gamma                 120.0000
loop_
_atom_site_label
_atom_site_type_symbol
_atom_site_fract_x
_atom_site_fract_y
_atom_site_fract_z
_atom_site_U_iso_or_equiv
_atom_site_adp_type
_atom_site_occupancy
C1     C     0.91869   0.94657   0.03257   0.00000  Uiso   1.00
N1     N     0.69911   0.86431   0.19775   0.00000  Uiso   1.00
C2     C     0.72868   0.87772   0.17325   0.00000  Uiso   1.00
C3     C     0.74326   0.89757   0.34831   0.00000  Uiso   1.00
C4     C     0.72211   0.89562   0.47048   0.00000  Uiso   1.00
C5     C     0.82287   0.93458  -0.02196   0.00000  Uiso   1.00
C6     C     0.79196   0.91915  -0.02825   0.00000  Uiso   1.00
C7     C     0.94501   0.99950   0.02709   0.00000  Uiso   1.00
C8     C     0.97268   0.00020   0.03029   0.00000  Uiso   1.00
C9     C     0.41467   0.71983  -0.02451   0.00000  Uiso   1.00
N2     N     0.63425   0.80175  -0.18296   0.00000  Uiso   1.00
C10    C     0.63922   0.79163  -0.36051   0.00000  Uiso   1.00
C11    C     0.60468   0.78835  -0.15846   0.00000  Uiso   1.00
C12    C     0.59009   0.76856  -0.33366   0.00000  Uiso   1.00
C13    C     0.61123   0.77054  -0.45610   0.00000  Uiso   1.00
C14    C     0.51103   0.77681  -0.05774   0.00000  Uiso   1.00
C15    C     0.54196   0.79208  -0.05462   0.00000  Uiso   1.00
O1     O     0.44296   0.74415  -0.03320   0.00000  Uiso   1.00
C16    C     0.38814   0.66695   0.00187   0.00000  Uiso   1.00
C17    C     0.36058   0.66637  -0.01234   0.00000  Uiso   1.00
C18    C     0.41445   0.69373  -0.00381   0.00000  Uiso   1.00
C19    C     0.63879   0.84661   0.36936   0.00000  Uiso   1.00
C20    C     0.60460   0.81394   0.16853   0.00000  Uiso   1.00
C21    C     0.59045   0.82133   0.31893   0.00000  Uiso   1.00
C22    C     0.61213   0.84201   0.44535   0.00000  Uiso   1.00
C23    C     0.51046   0.73189   0.04544   0.00000  Uiso   1.00
C24    C     0.54138   0.74727   0.05116   0.00000  Uiso   1.00
C25    C     0.38859   0.72073  -0.03115   0.00000  Uiso   1.00
C26    C     0.36081   0.69399  -0.01758   0.00000  Uiso   1.00
C27    C     0.91881   0.97270   0.02715   0.00000  Uiso   1.00
N3     N     0.69927   0.83696  -0.18936   0.00000  Uiso   1.00
C28    C     0.69457   0.81958  -0.35532   0.00000  Uiso   1.00
C29    C     0.72877   0.85217  -0.15415   0.00000  Uiso   1.00
C30    C     0.74292   0.84500  -0.30596   0.00000  Uiso   1.00
C31    C     0.72123   0.82436  -0.43249   0.00000  Uiso   1.00
C32    C     0.82246   0.88918   0.06397   0.00000  Uiso   1.00
C33    C     0.79154   0.87385   0.06107   0.00000  Uiso   1.00
O2     O     0.89068   0.96914   0.02187   0.00000  Uiso   1.00
C34    C     0.94477   0.94574   0.03369   0.00000  Uiso   1.00
C35    C     0.66630   0.86659   0.45638   0.00000  Uiso   1.00
C36    C     0.66704   0.79959  -0.44224   0.00000  Uiso   1.00
C37    C     0.83828   0.91965   0.02311   0.00000  Uiso   1.00
B1     B     0.87286   0.93684   0.02740   0.00000  Uiso   1.00
C38    C     0.59004   0.79359   0.00548   0.00000  Uiso   1.00
C39    C     0.49511   0.74661  -0.00813   0.00000  Uiso   1.00
C40    C     0.55728   0.77744   0.00119   0.00000  Uiso   1.00
B2     B     0.46050   0.72948  -0.01209   0.00000  Uiso   1.00
C41    C     0.69413   0.87449   0.37502   0.00000  Uiso   1.00
O3     O     0.89047   0.92213   0.03494   0.00000  Uiso   1.00
N4     N     0.63409   0.82905   0.20439   0.00000  Uiso   1.00
O4     O     0.44256   0.69728   0.00734   0.00000  Uiso   1.00
C42    C     0.74334   0.87249   0.00923   0.00000  Uiso   1.00
C43    C     0.77612   0.88871   0.01338   0.00000  Uiso   1.00
C44    C     0.97256   0.97261   0.03118   0.00000  Uiso   1.00
H1     H     0.76674   0.91106   0.37744   0.00000  Uiso   1.00
H2     H     0.72533   0.90718   0.61483   0.00000  Uiso   1.00
H3     H     0.83465   0.95810  -0.05417   0.00000  Uiso   1.00
H4     H     0.78033   0.93089  -0.06487   0.00000  Uiso   1.00
H5     H     0.94266   0.01880   0.02252   0.00000  Uiso   1.00
H6     H     0.56660   0.75508  -0.36257   0.00000  Uiso   1.00
H7     H     0.60800   0.75904  -0.60068   0.00000  Uiso   1.00
H8     H     0.49964   0.78859  -0.10041   0.00000  Uiso   1.00
H9     H     0.55399   0.81533  -0.09485   0.00000  Uiso   1.00
H10    H     0.39011   0.64753   0.02080   0.00000  Uiso   1.00
H11    H     0.56694   0.81279   0.33649   0.00000  Uiso   1.00
H12    H     0.60873   0.85250   0.57799   0.00000  Uiso   1.00
H13    H     0.49863   0.70860   0.08452   0.00000  Uiso   1.00
H14    H     0.55296   0.73570   0.09424   0.00000  Uiso   1.00
H15    H     0.39090   0.74228  -0.04980   0.00000  Uiso   1.00
H16    H     0.68336   0.83980  -0.11547   0.00000  Uiso   1.00
H17    H     0.76643   0.85370  -0.32475   0.00000  Uiso   1.00
H18    H     0.72463   0.81403  -0.56609   0.00000  Uiso   1.00
H19    H     0.83392   0.87723   0.09985   0.00000  Uiso   1.00
H20    H     0.77957   0.85039   0.09492   0.00000  Uiso   1.00
H21    H     0.94225   0.92402   0.03789   0.00000  Uiso   1.00
H22    H     0.66607   0.87765   0.59694   0.00000  Uiso   1.00
H23    H     0.66727   0.78863  -0.58331   0.00000  Uiso   1.00
H24    H     0.64996   0.82598   0.13199   0.00000  Uiso   1.00
C45    C     0.05343   0.97212   0.03257   0.00000  Uiso   1.00
N5     N     0.13569   0.83480   0.19775   0.00000  Uiso   1.00
C46    C     0.12228   0.85096   0.17325   0.00000  Uiso   1.00
C47    C     0.10243   0.84569   0.34831   0.00000  Uiso   1.00
C48    C     0.10438   0.82649   0.47048   0.00000  Uiso   1.00
C49    C     0.06542   0.88828  -0.02196   0.00000  Uiso   1.00
C50    C     0.08085   0.87281  -0.02825   0.00000  Uiso   1.00
C51    C     0.00050   0.94550   0.02709   0.00000  Uiso   1.00
C52    C     0.99980   0.97249   0.03029   0.00000  Uiso   1.00
C53    C     0.28017   0.69484  -0.02451   0.00000  Uiso   1.00
N6     N     0.19825   0.83250  -0.18296   0.00000  Uiso   1.00
C54    C     0.20837   0.84758  -0.36051   0.00000  Uiso   1.00
C55    C     0.21165   0.81633  -0.15846   0.00000  Uiso   1.00
C56    C     0.23144   0.82153  -0.33366   0.00000  Uiso   1.00
C57    C     0.22946   0.84068  -0.45610   0.00000  Uiso   1.00
C58    C     0.22319   0.73422  -0.05774   0.00000  Uiso   1.00
C59    C     0.20792   0.74987  -0.05462   0.00000  Uiso   1.00
O5     O     0.25585   0.69881  -0.03320   0.00000  Uiso   1.00
C60    C     0.33305   0.72119   0.00187   0.00000  Uiso   1.00
C61    C     0.33363   0.69421  -0.01234   0.00000  Uiso   1.00
C62    C     0.30627   0.72071  -0.00381   0.00000  Uiso   1.00
C63    C     0.15339   0.79218   0.36936   0.00000  Uiso   1.00
C64    C     0.18606   0.79066   0.16853   0.00000  Uiso   1.00
C65    C     0.17867   0.76911   0.31893   0.00000  Uiso   1.00
C66    C     0.15799   0.77012   0.44535   0.00000  Uiso   1.00
C67    C     0.26811   0.77857   0.04544   0.00000  Uiso   1.00
C68    C     0.25273   0.79411   0.05116   0.00000  Uiso   1.00
C69    C     0.27927   0.66785  -0.03115   0.00000  Uiso   1.00
C70    C     0.30601   0.66682  -0.01758   0.00000  Uiso   1.00
C71    C     0.02730   0.94611   0.02715   0.00000  Uiso   1.00
N7     N     0.16304   0.86231  -0.18936   0.00000  Uiso   1.00
C72    C     0.18042   0.87499  -0.35532   0.00000  Uiso   1.00
C73    C     0.14783   0.87660  -0.15415   0.00000  Uiso   1.00
C74    C     0.15500   0.89793  -0.30596   0.00000  Uiso   1.00
C75    C     0.17564   0.89688  -0.43249   0.00000  Uiso   1.00
C76    C     0.11082   0.93328   0.06397   0.00000  Uiso   1.00
C77    C     0.12615   0.91768   0.06107   0.00000  Uiso   1.00
O6     O     0.03086   0.92154   0.02187   0.00000  Uiso   1.00
C78    C     0.05426   0.99903   0.03369   0.00000  Uiso   1.00
C79    C     0.13341   0.79972   0.45638   0.00000  Uiso   1.00
C80    C     0.20041   0.86745  -0.44224   0.00000  Uiso   1.00
C81    C     0.08035   0.91864   0.02311   0.00000  Uiso   1.00
B3     B     0.06316   0.93602   0.02740   0.00000  Uiso   1.00
C82    C     0.20641   0.79645   0.00548   0.00000  Uiso   1.00
C83    C     0.25339   0.74850  -0.00813   0.00000  Uiso   1.00
C84    C     0.22256   0.77985   0.00119   0.00000  Uiso   1.00
B4     B     0.27052   0.73102  -0.01209   0.00000  Uiso   1.00
C85    C     0.12551   0.81965   0.37502   0.00000  Uiso   1.00
O7     O     0.07787   0.96833   0.03494   0.00000  Uiso   1.00
N8     N     0.17095   0.80504   0.20439   0.00000  Uiso   1.00
O8     O     0.30272   0.74528   0.00734   0.00000  Uiso   1.00
C86    C     0.12751   0.87085   0.00923   0.00000  Uiso   1.00
C87    C     0.11129   0.88741   0.01338   0.00000  Uiso   1.00
C88    C     0.02739   0.99996   0.03118   0.00000  Uiso   1.00
H25    H     0.08894   0.85568   0.37744   0.00000  Uiso   1.00
H26    H     0.09282   0.81816   0.61483   0.00000  Uiso   1.00
H27    H     0.04190   0.87655  -0.05417   0.00000  Uiso   1.00
H28    H     0.06911   0.84944  -0.06487   0.00000  Uiso   1.00
H29    H     0.98120   0.92386   0.02252   0.00000  Uiso   1.00
H30    H     0.24492   0.81153  -0.36257   0.00000  Uiso   1.00
H31    H     0.24096   0.84896  -0.60068   0.00000  Uiso   1.00
H32    H     0.21141   0.71105  -0.10041   0.00000  Uiso   1.00
H33    H     0.18467   0.73866  -0.09485   0.00000  Uiso   1.00
H34    H     0.35247   0.74258   0.02080   0.00000  Uiso   1.00
H35    H     0.18721   0.75415   0.33649   0.00000  Uiso   1.00
H36    H     0.14750   0.75623   0.57799   0.00000  Uiso   1.00
H37    H     0.29140   0.79003   0.08452   0.00000  Uiso   1.00
H38    H     0.26430   0.81726   0.09424   0.00000  Uiso   1.00
H39    H     0.25772   0.64862  -0.04980   0.00000  Uiso   1.00
H40    H     0.16020   0.84356  -0.11547   0.00000  Uiso   1.00
H41    H     0.14630   0.91274  -0.32475   0.00000  Uiso   1.00
H42    H     0.18597   0.91060  -0.56609   0.00000  Uiso   1.00
H43    H     0.12277   0.95668   0.09985   0.00000  Uiso   1.00
H44    H     0.14961   0.92918   0.09492   0.00000  Uiso   1.00
H45    H     0.07598   0.01823   0.03789   0.00000  Uiso   1.00
H46    H     0.12235   0.78842   0.59694   0.00000  Uiso   1.00
H47    H     0.21137   0.87864  -0.58331   0.00000  Uiso   1.00
H48    H     0.17402   0.82398   0.13199   0.00000  Uiso   1.00
C89    C     0.02788   0.08131   0.03257   0.00000  Uiso   1.00
N9     N     0.16520   0.30089   0.19775   0.00000  Uiso   1.00
C90    C     0.14904   0.27132   0.17325   0.00000  Uiso   1.00
C91    C     0.15431   0.25674   0.34831   0.00000  Uiso   1.00
C92    C     0.17351   0.27789   0.47048   0.00000  Uiso   1.00
C93    C     0.11172   0.17713  -0.02196   0.00000  Uiso   1.00
C94    C     0.12719   0.20804  -0.02825   0.00000  Uiso   1.00
C95    C     0.05450   0.05499   0.02709   0.00000  Uiso   1.00
C96    C     0.02751   0.02732   0.03029   0.00000  Uiso   1.00
C97    C     0.30516   0.58533  -0.02451   0.00000  Uiso   1.00
N10    N     0.16750   0.36575  -0.18296   0.00000  Uiso   1.00
C98    C     0.15242   0.36078  -0.36051   0.00000  Uiso   1.00
C99    C     0.18367   0.39532  -0.15846   0.00000  Uiso   1.00
C100   C     0.17847   0.40991  -0.33366   0.00000  Uiso   1.00
C101   C     0.15932   0.38877  -0.45610   0.00000  Uiso   1.00
C102   C     0.26578   0.48897  -0.05774   0.00000  Uiso   1.00
C103   C     0.25013   0.45804  -0.05462   0.00000  Uiso   1.00
O9     O     0.30119   0.55704  -0.03320   0.00000  Uiso   1.00
C104   C     0.27881   0.61186   0.00187   0.00000  Uiso   1.00
C105   C     0.30579   0.63942  -0.01234   0.00000  Uiso   1.00
C106   C     0.27928   0.58555  -0.00381   0.00000  Uiso   1.00
C107   C     0.20782   0.36121   0.36936   0.00000  Uiso   1.00
C108   C     0.20934   0.39540   0.16853   0.00000  Uiso   1.00
C109   C     0.23089   0.40955   0.31893   0.00000  Uiso   1.00
C110   C     0.22988   0.38787   0.44535   0.00000  Uiso   1.00
C111   C     0.22143   0.48954   0.04544   0.00000  Uiso   1.00
C112   C     0.20589   0.45862   0.05116   0.00000  Uiso   1.00
C113   C     0.33215   0.61141  -0.03115   0.00000  Uiso   1.00
C114   C     0.33318   0.63919  -0.01758   0.00000  Uiso   1.00
C115   C     0.05389   0.08119   0.02715   0.00000  Uiso   1.00
N11    N     0.13769   0.30073  -0.18936   0.00000  Uiso   1.00
C116   C     0.12501   0.30543  -0.35532   0.00000  Uiso   1.00
C117   C     0.12340   0.27123  -0.15415   0.00000  Uiso   1.00
C118   C     0.10207   0.25708  -0.30596   0.00000  Uiso   1.00
C119   C     0.10312   0.27877  -0.43249   0.00000  Uiso   1.00
C120   C     0.06672   0.17754   0.06397   0.00000  Uiso   1.00
C121   C     0.08232   0.20846   0.06107   0.00000  Uiso   1.00
O10    O     0.07846   0.10932   0.02187   0.00000  Uiso   1.00
C122   C     0.00097   0.05523   0.03369   0.00000  Uiso   1.00
C123   C     0.20028   0.33370   0.45638   0.00000  Uiso   1.00
C124   C     0.13255   0.33296  -0.44224   0.00000  Uiso   1.00
C125   C     0.08136   0.16172   0.02311   0.00000  Uiso   1.00
B5     B     0.06398   0.12714   0.02740   0.00000  Uiso   1.00
C126   C     0.20355   0.40996   0.00548   0.00000  Uiso   1.00
C127   C     0.25150   0.50489  -0.00813   0.00000  Uiso   1.00
C128   C     0.22015   0.44272   0.00119   0.00000  Uiso   1.00
B6     B     0.26898   0.53950  -0.01209   0.00000  Uiso   1.00
C129   C     0.18035   0.30587   0.37502   0.00000  Uiso   1.00
O11    O     0.03167   0.10953   0.03494   0.00000  Uiso   1.00
N12    N     0.19496   0.36591   0.20439   0.00000  Uiso   1.00
O12    O     0.25472   0.55744   0.00734   0.00000  Uiso   1.00
C130   C     0.12915   0.25666   0.00923   0.00000  Uiso   1.00
C131   C     0.11259   0.22388   0.01338   0.00000  Uiso   1.00
C132   C     0.00004   0.02744   0.03118   0.00000  Uiso   1.00
H49    H     0.14432   0.23326   0.37744   0.00000  Uiso   1.00
H50    H     0.18184   0.27467   0.61483   0.00000  Uiso   1.00
H51    H     0.12345   0.16535  -0.05417   0.00000  Uiso   1.00
H52    H     0.15056   0.21967  -0.06487   0.00000  Uiso   1.00
H53    H     0.07614   0.05734   0.02252   0.00000  Uiso   1.00
H54    H     0.18847   0.43340  -0.36257   0.00000  Uiso   1.00
H55    H     0.15104   0.39200  -0.60068   0.00000  Uiso   1.00
H56    H     0.28895   0.50036  -0.10041   0.00000  Uiso   1.00
H57    H     0.26134   0.44601  -0.09485   0.00000  Uiso   1.00
H58    H     0.25742   0.60989   0.02080   0.00000  Uiso   1.00
H59    H     0.24585   0.43306   0.33649   0.00000  Uiso   1.00
H60    H     0.24377   0.39127   0.57799   0.00000  Uiso   1.00
H61    H     0.20997   0.50137   0.08452   0.00000  Uiso   1.00
H62    H     0.18274   0.44704   0.09424   0.00000  Uiso   1.00
H63    H     0.35138   0.60910  -0.04980   0.00000  Uiso   1.00
H64    H     0.15644   0.31664  -0.11547   0.00000  Uiso   1.00
H65    H     0.08726   0.23357  -0.32475   0.00000  Uiso   1.00
H66    H     0.08940   0.27537  -0.56609   0.00000  Uiso   1.00
H67    H     0.04332   0.16608   0.09985   0.00000  Uiso   1.00
H68    H     0.07082   0.22043   0.09492   0.00000  Uiso   1.00
H69    H     0.98177   0.05775   0.03789   0.00000  Uiso   1.00
H70    H     0.21158   0.33393   0.59694   0.00000  Uiso   1.00
H71    H     0.12136   0.33273  -0.58331   0.00000  Uiso   1.00
H72    H     0.17602   0.35004   0.13199   0.00000  Uiso   1.00
C133   C     0.08131   0.05343   0.53257   0.00000  Uiso   1.00
N13    N     0.30089   0.13569   0.69775   0.00000  Uiso   1.00
C134   C     0.27132   0.12228   0.67325   0.00000  Uiso   1.00
C135   C     0.25674   0.10243   0.84831   0.00000  Uiso   1.00
C136   C     0.27789   0.10438   0.97048   0.00000  Uiso   1.00
C137   C     0.17713   0.06542   0.47804   0.00000  Uiso   1.00
C138   C     0.20804   0.08085   0.47175   0.00000  Uiso   1.00
C139   C     0.05499   0.00050   0.52709   0.00000  Uiso   1.00
C140   C     0.02732   0.99980   0.53029   0.00000  Uiso   1.00
C141   C     0.58533   0.28017   0.47549   0.00000  Uiso   1.00
N14    N     0.36575   0.19825   0.31704   0.00000  Uiso   1.00
C142   C     0.36078   0.20837   0.13949   0.00000  Uiso   1.00
C143   C     0.39532   0.21165   0.34154   0.00000  Uiso   1.00
C144   C     0.40991   0.23144   0.16634   0.00000  Uiso   1.00
C145   C     0.38877   0.22946   0.04390   0.00000  Uiso   1.00
C146   C     0.48897   0.22319   0.44226   0.00000  Uiso   1.00
C147   C     0.45804   0.20792   0.44538   0.00000  Uiso   1.00
O13    O     0.55704   0.25585   0.46680   0.00000  Uiso   1.00
C148   C     0.61186   0.33305   0.50187   0.00000  Uiso   1.00
C149   C     0.63942   0.33363   0.48766   0.00000  Uiso   1.00
C150   C     0.58555   0.30627   0.49619   0.00000  Uiso   1.00
C151   C     0.36121   0.15339   0.86936   0.00000  Uiso   1.00
C152   C     0.39540   0.18606   0.66853   0.00000  Uiso   1.00
C153   C     0.40955   0.17867   0.81893   0.00000  Uiso   1.00
C154   C     0.38787   0.15799   0.94535   0.00000  Uiso   1.00
C155   C     0.48954   0.26811   0.54544   0.00000  Uiso   1.00
C156   C     0.45862   0.25273   0.55116   0.00000  Uiso   1.00
C157   C     0.61141   0.27927   0.46885   0.00000  Uiso   1.00
C158   C     0.63919   0.30601   0.48242   0.00000  Uiso   1.00
C159   C     0.08119   0.02730   0.52715   0.00000  Uiso   1.00
N15    N     0.30073   0.16304   0.31064   0.00000  Uiso   1.00
C160   C     0.30543   0.18042   0.14468   0.00000  Uiso   1.00
C161   C     0.27123   0.14783   0.34585   0.00000  Uiso   1.00
C162   C     0.25708   0.15500   0.19404   0.00000  Uiso   1.00
C163   C     0.27877   0.17564   0.06751   0.00000  Uiso   1.00
C164   C     0.17754   0.11082   0.56397   0.00000  Uiso   1.00
C165   C     0.20846   0.12615   0.56107   0.00000  Uiso   1.00
O14    O     0.10932   0.03086   0.52187   0.00000  Uiso   1.00
C166   C     0.05523   0.05426   0.53369   0.00000  Uiso   1.00
C167   C     0.33370   0.13341   0.95638   0.00000  Uiso   1.00
C168   C     0.33296   0.20041   0.05776   0.00000  Uiso   1.00
C169   C     0.16172   0.08035   0.52311   0.00000  Uiso   1.00
B7     B     0.12714   0.06316   0.52740   0.00000  Uiso   1.00
C170   C     0.40996   0.20641   0.50548   0.00000  Uiso   1.00
C171   C     0.50489   0.25339   0.49187   0.00000  Uiso   1.00
C172   C     0.44272   0.22256   0.50119   0.00000  Uiso   1.00
B8     B     0.53950   0.27052   0.48791   0.00000  Uiso   1.00
C173   C     0.30587   0.12551   0.87502   0.00000  Uiso   1.00
O15    O     0.10953   0.07787   0.53494   0.00000  Uiso   1.00
N16    N     0.36591   0.17095   0.70439   0.00000  Uiso   1.00
O16    O     0.55744   0.30272   0.50734   0.00000  Uiso   1.00
C174   C     0.25666   0.12751   0.50923   0.00000  Uiso   1.00
C175   C     0.22388   0.11129   0.51338   0.00000  Uiso   1.00
C176   C     0.02744   0.02739   0.53118   0.00000  Uiso   1.00
H73    H     0.23326   0.08894   0.87744   0.00000  Uiso   1.00
H74    H     0.27467   0.09282   1.11483   0.00000  Uiso   1.00
H75    H     0.16535   0.04190   0.44583   0.00000  Uiso   1.00
H76    H     0.21967   0.06911   0.43513   0.00000  Uiso   1.00
H77    H     0.05734   0.98120   0.52252   0.00000  Uiso   1.00
H78    H     0.43340   0.24492   0.13743   0.00000  Uiso   1.00
H79    H     0.39200   0.24096  -0.10068   0.00000  Uiso   1.00
H80    H     0.50036   0.21141   0.39959   0.00000  Uiso   1.00
H81    H     0.44601   0.18467   0.40515   0.00000  Uiso   1.00
H82    H     0.60989   0.35247   0.52080   0.00000  Uiso   1.00
H83    H     0.43306   0.18721   0.83649   0.00000  Uiso   1.00
H84    H     0.39127   0.14750   1.07799   0.00000  Uiso   1.00
H85    H     0.50137   0.29140   0.58452   0.00000  Uiso   1.00
H86    H     0.44704   0.26430   0.59424   0.00000  Uiso   1.00
H87    H     0.60910   0.25772   0.45020   0.00000  Uiso   1.00
H88    H     0.31664   0.16020   0.38453   0.00000  Uiso   1.00
H89    H     0.23357   0.14630   0.17525   0.00000  Uiso   1.00
H90    H     0.27537   0.18597  -0.06609   0.00000  Uiso   1.00
H91    H     0.16608   0.12277   0.59985   0.00000  Uiso   1.00
H92    H     0.22043   0.14961   0.59492   0.00000  Uiso   1.00
H93    H     0.05775   0.07598   0.53789   0.00000  Uiso   1.00
H94    H     0.33393   0.12235   1.09694   0.00000  Uiso   1.00
H95    H     0.33273   0.21137  -0.08331   0.00000  Uiso   1.00
H96    H     0.35004   0.17402   0.63199   0.00000  Uiso   1.00
C177   C     0.94657   0.02788   0.53257   0.00000  Uiso   1.00
N17    N     0.86431   0.16520   0.69775   0.00000  Uiso   1.00
C178   C     0.87772   0.14904   0.67325   0.00000  Uiso   1.00
C179   C     0.89757   0.15431   0.84831   0.00000  Uiso   1.00
C180   C     0.89562   0.17351   0.97048   0.00000  Uiso   1.00
C181   C     0.93458   0.11172   0.47804   0.00000  Uiso   1.00
C182   C     0.91915   0.12719   0.47175   0.00000  Uiso   1.00
C183   C     0.99950   0.05450   0.52709   0.00000  Uiso   1.00
C184   C     0.00020   0.02751   0.53029   0.00000  Uiso   1.00
C185   C     0.71983   0.30516   0.47549   0.00000  Uiso   1.00
N18    N     0.80175   0.16750   0.31704   0.00000  Uiso   1.00
C186   C     0.79163   0.15242   0.13949   0.00000  Uiso   1.00
C187   C     0.78835   0.18367   0.34154   0.00000  Uiso   1.00
C188   C     0.76856   0.17847   0.16634   0.00000  Uiso   1.00
C189   C     0.77054   0.15932   0.04390   0.00000  Uiso   1.00
C190   C     0.77681   0.26578   0.44226   0.00000  Uiso   1.00
C191   C     0.79208   0.25013   0.44538   0.00000  Uiso   1.00
O17    O     0.74415   0.30119   0.46680   0.00000  Uiso   1.00
C192   C     0.66695   0.27881   0.50187   0.00000  Uiso   1.00
C193   C     0.66637   0.30579   0.48766   0.00000  Uiso   1.00
C194   C     0.69373   0.27928   0.49619   0.00000  Uiso   1.00
C195   C     0.84661   0.20782   0.86936   0.00000  Uiso   1.00
C196   C     0.81394   0.20934   0.66853   0.00000  Uiso   1.00
C197   C     0.82133   0.23089   0.81893   0.00000  Uiso   1.00
C198   C     0.84201   0.22988   0.94535   0.00000  Uiso   1.00
C199   C     0.73189   0.22143   0.54544   0.00000  Uiso   1.00
C200   C     0.74727   0.20589   0.55116   0.00000  Uiso   1.00
C201   C     0.72073   0.33215   0.46885   0.00000  Uiso   1.00
C202   C     0.69399   0.33318   0.48242   0.00000  Uiso   1.00
C203   C     0.97270   0.05389   0.52715   0.00000  Uiso   1.00
N19    N     0.83696   0.13769   0.31064   0.00000  Uiso   1.00
C204   C     0.81958   0.12501   0.14468   0.00000  Uiso   1.00
C205   C     0.85217   0.12340   0.34585   0.00000  Uiso   1.00
C206   C     0.84500   0.10207   0.19404   0.00000  Uiso   1.00
C207   C     0.82436   0.10312   0.06751   0.00000  Uiso   1.00
C208   C     0.88918   0.06672   0.56397   0.00000  Uiso   1.00
C209   C     0.87385   0.08232   0.56107   0.00000  Uiso   1.00
O18    O     0.96914   0.07846   0.52187   0.00000  Uiso   1.00
C210   C     0.94574   0.00097   0.53369   0.00000  Uiso   1.00
C211   C     0.86659   0.20028   0.95638   0.00000  Uiso   1.00
C212   C     0.79959   0.13255   0.05776   0.00000  Uiso   1.00
C213   C     0.91965   0.08136   0.52311   0.00000  Uiso   1.00
B9     B     0.93684   0.06398   0.52740   0.00000  Uiso   1.00
C214   C     0.79359   0.20355   0.50548   0.00000  Uiso   1.00
C215   C     0.74661   0.25150   0.49187   0.00000  Uiso   1.00
C216   C     0.77744   0.22015   0.50119   0.00000  Uiso   1.00
B10    B     0.72948   0.26898   0.48791   0.00000  Uiso   1.00
C217   C     0.87449   0.18035   0.87502   0.00000  Uiso   1.00
O19    O     0.92213   0.03167   0.53494   0.00000  Uiso   1.00
N20    N     0.82905   0.19496   0.70439   0.00000  Uiso   1.00
O20    O     0.69728   0.25472   0.50734   0.00000  Uiso   1.00
C218   C     0.87249   0.12915   0.50923   0.00000  Uiso   1.00
C219   C     0.88871   0.11259   0.51338   0.00000  Uiso   1.00
C220   C     0.97261   0.00004   0.53118   0.00000  Uiso   1.00
H97    H     0.91106   0.14432   0.87744   0.00000  Uiso   1.00
H98    H     0.90718   0.18184   1.11483   0.00000  Uiso   1.00
H99    H     0.95810   0.12345   0.44583   0.00000  Uiso   1.00
H100   H     0.93089   0.15056   0.43513   0.00000  Uiso   1.00
H101   H     0.01880   0.07614   0.52252   0.00000  Uiso   1.00
H102   H     0.75508   0.18847   0.13743   0.00000  Uiso   1.00
H103   H     0.75904   0.15104  -0.10068   0.00000  Uiso   1.00
H104   H     0.78859   0.28895   0.39959   0.00000  Uiso   1.00
H105   H     0.81533   0.26134   0.40515   0.00000  Uiso   1.00
H106   H     0.64753   0.25742   0.52080   0.00000  Uiso   1.00
H107   H     0.81279   0.24585   0.83649   0.00000  Uiso   1.00
H108   H     0.85250   0.24377   1.07799   0.00000  Uiso   1.00
H109   H     0.70860   0.20997   0.58452   0.00000  Uiso   1.00
H110   H     0.73570   0.18274   0.59424   0.00000  Uiso   1.00
H111   H     0.74228   0.35138   0.45020   0.00000  Uiso   1.00
H112   H     0.83980   0.15644   0.38453   0.00000  Uiso   1.00
H113   H     0.85370   0.08726   0.17525   0.00000  Uiso   1.00
H114   H     0.81403   0.08940  -0.06609   0.00000  Uiso   1.00
H115   H     0.87723   0.04332   0.59985   0.00000  Uiso   1.00
H116   H     0.85039   0.07082   0.59492   0.00000  Uiso   1.00
H117   H     0.92402   0.98177   0.53789   0.00000  Uiso   1.00
H118   H     0.87765   0.21158   1.09694   0.00000  Uiso   1.00
H119   H     0.78863   0.12136  -0.08331   0.00000  Uiso   1.00
H120   H     0.82598   0.17602   0.63199   0.00000  Uiso   1.00
C221   C     0.97212   0.91869   0.53257   0.00000  Uiso   1.00
N21    N     0.83480   0.69911   0.69775   0.00000  Uiso   1.00
C222   C     0.85096   0.72868   0.67325   0.00000  Uiso   1.00
C223   C     0.84569   0.74326   0.84831   0.00000  Uiso   1.00
C224   C     0.82649   0.72211   0.97048   0.00000  Uiso   1.00
C225   C     0.88828   0.82287   0.47804   0.00000  Uiso   1.00
C226   C     0.87281   0.79196   0.47175   0.00000  Uiso   1.00
C227   C     0.94550   0.94501   0.52709   0.00000  Uiso   1.00
C228   C     0.97249   0.97268   0.53029   0.00000  Uiso   1.00
C229   C     0.69484   0.41467   0.47549   0.00000  Uiso   1.00
N22    N     0.83250   0.63425   0.31704   0.00000  Uiso   1.00
C230   C     0.84758   0.63922   0.13949   0.00000  Uiso   1.00
C231   C     0.81633   0.60468   0.34154   0.00000  Uiso   1.00
C232   C     0.82153   0.59009   0.16634   0.00000  Uiso   1.00
C233   C     0.84068   0.61123   0.04390   0.00000  Uiso   1.00
C234   C     0.73422   0.51103   0.44226   0.00000  Uiso   1.00
C235   C     0.74987   0.54196   0.44538   0.00000  Uiso   1.00
O21    O     0.69881   0.44296   0.46680   0.00000  Uiso   1.00
C236   C     0.72119   0.38814   0.50187   0.00000  Uiso   1.00
C237   C     0.69421   0.36058   0.48766   0.00000  Uiso   1.00
C238   C     0.72071   0.41445   0.49619   0.00000  Uiso   1.00
C239   C     0.79218   0.63879   0.86936   0.00000  Uiso   1.00
C240   C     0.79066   0.60460   0.66853   0.00000  Uiso   1.00
C241   C     0.76911   0.59045   0.81893   0.00000  Uiso   1.00
C242   C     0.77012   0.61213   0.94535   0.00000  Uiso   1.00
C243   C     0.77857   0.51046   0.54544   0.00000  Uiso   1.00
C244   C     0.79411   0.54138   0.55116   0.00000  Uiso   1.00
C245   C     0.66785   0.38859   0.46885   0.00000  Uiso   1.00
C246   C     0.66682   0.36081   0.48242   0.00000  Uiso   1.00
C247   C     0.94611   0.91881   0.52715   0.00000  Uiso   1.00
N23    N     0.86231   0.69927   0.31064   0.00000  Uiso   1.00
C248   C     0.87499   0.69457   0.14468   0.00000  Uiso   1.00
C249   C     0.87660   0.72877   0.34585   0.00000  Uiso   1.00
C250   C     0.89793   0.74292   0.19404   0.00000  Uiso   1.00
C251   C     0.89688   0.72123   0.06751   0.00000  Uiso   1.00
C252   C     0.93328   0.82246   0.56397   0.00000  Uiso   1.00
C253   C     0.91768   0.79154   0.56107   0.00000  Uiso   1.00
O22    O     0.92154   0.89068   0.52187   0.00000  Uiso   1.00
C254   C     0.99903   0.94477   0.53369   0.00000  Uiso   1.00
C255   C     0.79972   0.66630   0.95638   0.00000  Uiso   1.00
C256   C     0.86745   0.66704   0.05776   0.00000  Uiso   1.00
C257   C     0.91864   0.83828   0.52311   0.00000  Uiso   1.00
B11    B     0.93602   0.87286   0.52740   0.00000  Uiso   1.00
C258   C     0.79645   0.59004   0.50548   0.00000  Uiso   1.00
C259   C     0.74850   0.49511   0.49187   0.00000  Uiso   1.00
C260   C     0.77985   0.55728   0.50119   0.00000  Uiso   1.00
B12    B     0.73102   0.46050   0.48791   0.00000  Uiso   1.00
C261   C     0.81965   0.69413   0.87502   0.00000  Uiso   1.00
O23    O     0.96833   0.89047   0.53494   0.00000  Uiso   1.00
N24    N     0.80504   0.63409   0.70439   0.00000  Uiso   1.00
O24    O     0.74528   0.44256   0.50734   0.00000  Uiso   1.00
C262   C     0.87085   0.74334   0.50923   0.00000  Uiso   1.00
C263   C     0.88741   0.77612   0.51338   0.00000  Uiso   1.00
C264   C     0.99996   0.97256   0.53118   0.00000  Uiso   1.00
H121   H     0.85568   0.76674   0.87744   0.00000  Uiso   1.00
H122   H     0.81816   0.72533   1.11483   0.00000  Uiso   1.00
H123   H     0.87655   0.83465   0.44583   0.00000  Uiso   1.00
H124   H     0.84944   0.78033   0.43513   0.00000  Uiso   1.00
H125   H     0.92386   0.94266   0.52252   0.00000  Uiso   1.00
H126   H     0.81153   0.56660   0.13743   0.00000  Uiso   1.00
H127   H     0.84896   0.60800  -0.10068   0.00000  Uiso   1.00
H128   H     0.71105   0.49964   0.39959   0.00000  Uiso   1.00
H129   H     0.73866   0.55399   0.40515   0.00000  Uiso   1.00
H130   H     0.74258   0.39011   0.52080   0.00000  Uiso   1.00
H131   H     0.75415   0.56694   0.83649   0.00000  Uiso   1.00
H132   H     0.75623   0.60873   1.07799   0.00000  Uiso   1.00
H133   H     0.79003   0.49863   0.58452   0.00000  Uiso   1.00
H134   H     0.81726   0.55296   0.59424   0.00000  Uiso   1.00
H135   H     0.64862   0.39090   0.45020   0.00000  Uiso   1.00
H136   H     0.84356   0.68336   0.38453   0.00000  Uiso   1.00
H137   H     0.91274   0.76643   0.17525   0.00000  Uiso   1.00
H138   H     0.91060   0.72463  -0.06609   0.00000  Uiso   1.00
H139   H     0.95668   0.83392   0.59985   0.00000  Uiso   1.00
H140   H     0.92918   0.77957   0.59492   0.00000  Uiso   1.00
H141   H     0.01823   0.94225   0.53789   0.00000  Uiso   1.00
H142   H     0.78842   0.66607   1.09694   0.00000  Uiso   1.00
H143   H     0.87864   0.66727  -0.08331   0.00000  Uiso   1.00
H144   H     0.82398   0.64996   0.63199   0.00000  Uiso   1.00
loop_
_geom_bond_atom_site_label_1
_geom_bond_atom_site_label_2
_geom_bond_distance
_geom_bond_site_symmetry_2
_ccdc_geom_bond_type
C1     C34     1.384   .     S
C1     C27     1.361   .     S
C1     O3      1.385   .     S
N1     C2      1.348   .     S
N1     C41     1.347   .     S
C2     C42     1.416   .     S
C2     C3      1.469   .     S
C3     C4      1.322   .     S
C3     H1      1.082   .     S
C4     C41     1.457   .     S
C4     H2      1.082   .     S
C5     C6      1.398   .     S
C5     H3      1.084   .     S
C5     C37     1.403   .     S
C6     H4      1.083   .     S
C6     C43     1.403   .     S
C7     C27     1.384   .     S
C9     C25     1.386   .     S
C9     O1      1.386   .     S
C9     C18     1.363   .     S
N2     C11     1.348   .     S
N2     C10     1.347   .     S
C10    C36     1.400   .     S
C10    C13     1.457   .     S
C11    C12     1.469   .     S
C11    C38     1.415   .     S
C12    C13     1.322   .     S
C12    H6      1.082   .     S
C13    H7      1.082   .     S
C14    C39     1.404   .     S
C14    H8      1.083   .     S
C14    C15     1.398   .     S
C15    H9      1.083   .     S
C15    C40     1.403   .     S
O1     B2      1.464   .     S
C16    H10     1.076   .     S
C16    C18     1.386   .     S
C16    C17     1.427   .     S
C17    C26     1.436   .     S
C17    C114    1.425   .     S
C18    O4      1.386   .     S
C19    C22     1.380   .     S
C19    C35     1.405   .     S
C19    N4      1.351   .     S
C20    C38     1.422   .     S
C20    N4      1.353   .     S
C20    C21     1.391   .     S
C21    H11     1.082   .     S
C21    C22     1.378   .     S
C22    H12     1.082   .     S
C23    H13     1.083   .     S
C23    C24     1.398   .     S
C23    C39     1.403   .     S
C24    C40     1.402   .     S
C24    H14     1.083   .     S
C25    H15     1.076   .     S
C25    C26     1.427   .     S
C26    C61     1.425   .     S
C27    O2      1.385   .     S
N3     C29     1.353   .     S
N3     H16     1.032   .     S
N3     C28     1.351   .     S
C28    C36     1.405   .     S
C28    C31     1.380   .     S
C29    C30     1.392   .     S
C29    C42     1.423   .     S
C30    C31     1.378   .     S
C30    H17     1.082   .     S
C31    H18     1.083   .     S
C32    H19     1.084   .     S
C32    C33     1.398   .     S
C32    C37     1.403   .     S
C33    C43     1.403   .     S
C33    H20     1.083   .     S
O2     B1      1.463   .     S
C34    C44     1.427   .     S
C34    H21     1.074   .     S
C35    C41     1.400   .     S
C35    H22     1.084   .     S
C36    H23     1.084   .     S
C37    B1      1.563   .     S
B1     O3      1.463   .     S
C38    C40     1.481   .     S
C39    B2      1.565   .     S
B2     O4      1.464   .     S
N4     H24     1.033   .     S
C42    C43     1.482   .     S
C44    C52     1.425   .     S
C45    C71     1.361   .     S
C45    O7      1.385   .     S
C45    C78     1.384   .     S
N5     C46     1.348   .     S
N5     C85     1.347   .     S
C46    C86     1.416   .     S
C46    C47     1.469   .     S
C47    C48     1.322   .     S
C47    H25     1.082   .     S
C48    C85     1.457   .     S
C48    H26     1.082   .     S
C49    H27     1.084   .     S
C49    C50     1.398   .     S
C49    C81     1.403   .     S
C50    H28     1.083   .     S
C50    C87     1.403   .     S
C51    C71     1.384   .     S
C53    C69     1.386   .     S
C53    O5      1.386   .     S
C53    C62     1.363   .     S
N6     C55     1.348   .     S
N6     C54     1.347   .     S
C54    C57     1.457   .     S
C54    C80     1.400   .     S
C55    C56     1.469   .     S
C55    C82     1.415   .     S
C56    H30     1.082   .     S
C56    C57     1.322   .     S
C57    H31     1.082   .     S
C58    H32     1.083   .     S
C58    C59     1.398   .     S
C58    C83     1.404   .     S
C59    H33     1.083   .     S
C59    C84     1.403   .     S
O5     B4      1.464   .     S
C60    H34     1.076   .     S
C60    C62     1.386   .     S
C60    C61     1.427   .     S
C61    C70     1.436   .     S
C62    O8      1.386   .     S
C63    C79     1.405   .     S
C63    C66     1.380   .     S
C63    N8      1.351   .     S
C64    N8      1.353   .     S
C64    C82     1.422   .     S
C64    C65     1.391   .     S
C65    C66     1.378   .     S
C65    H35     1.082   .     S
C66    H36     1.082   .     S
C67    H37     1.083   .     S
C67    C68     1.398   .     S
C67    C83     1.403   .     S
C68    H38     1.083   .     S
C68    C84     1.402   .     S
C69    C70     1.427   .     S
C69    H39     1.076   .     S
C70    C105    1.425   .     S
C71    O6      1.385   .     S
N7     C73     1.353   .     S
N7     H40     1.032   .     S
N7     C72     1.351   .     S
C72    C75     1.380   .     S
C72    C80     1.405   .     S
C73    C74     1.392   .     S
C73    C86     1.423   .     S
C74    C75     1.378   .     S
C74    H41     1.082   .     S
C75    H42     1.083   .     S
C76    C81     1.403   .     S
C76    C77     1.398   .     S
C76    H43     1.084   .     S
C77    H44     1.083   .     S
C77    C87     1.403   .     S
O6     B3      1.463   .     S
C78    C88     1.427   .     S
C79    C85     1.400   .     S
C79    H46     1.084   .     S
C80    H47     1.084   .     S
C81    B3      1.563   .     S
B3     O7      1.463   .     S
C82    C84     1.481   .     S
C83    B4      1.565   .     S
B4     O8      1.464   .     S
N8     H48     1.033   .     S
C86    C87     1.482   .     S
C89    O11     1.385   .     S
C89    C115    1.361   .     S
C89    C122    1.384   .     S
N9     C90     1.348   .     S
N9     C129    1.347   .     S
C90    C130    1.416   .     S
C90    C91     1.469   .     S
C91    C92     1.322   .     S
C91    H49     1.082   .     S
C92    C129    1.457   .     S
C92    H50     1.082   .     S
C93    H51     1.084   .     S
C93    C94     1.398   .     S
C93    C125    1.403   .     S
C94    H52     1.083   .     S
C94    C131    1.403   .     S
C95    H53     1.074   .     S
C95    C115    1.384   .     S
C95    C96     1.427   .     S
C96    C132    1.437   .     S
C97    O9      1.386   .     S
C97    C106    1.363   .     S
C97    C113    1.386   .     S
N10    C99     1.348   .     S
N10    C98     1.347   .     S
C98    C101    1.457   .     S
C98    C124    1.400   .     S
C99    C100    1.469   .     S
C99    C126    1.415   .     S
C100   H54     1.082   .     S
C100   C101    1.322   .     S
C101   H55     1.082   .     S
C102   C127    1.404   .     S
C102   H56     1.083   .     S
C102   C103    1.398   .     S
C103   H57     1.083   .     S
C103   C128    1.403   .     S
O9     B6      1.464   .     S
C104   H58     1.076   .     S
C104   C105    1.427   .     S
C104   C106    1.386   .     S
C105   C114    1.436   .     S
C106   O12     1.386   .     S
C107   C110    1.380   .     S
C107   C123    1.405   .     S
C107   N12     1.351   .     S
C108   C126    1.422   .     S
C108   N12     1.353   .     S
C108   C109    1.391   .     S
C109   H59     1.082   .     S
C109   C110    1.378   .     S
C110   H60     1.082   .     S
C111   H61     1.083   .     S
C111   C112    1.398   .     S
C111   C127    1.403   .     S
C112   C128    1.402   .     S
C112   H62     1.083   .     S
C113   H63     1.076   .     S
C113   C114    1.427   .     S
C115   O10     1.385   .     S
N11    H64     1.032   .     S
N11    C117    1.353   .     S
N11    C116    1.351   .     S
C116   C119    1.380   .     S
C116   C124    1.405   .     S
C117   C118    1.392   .     S
C117   C130    1.423   .     S
C118   C119    1.378   .     S
C118   H65     1.082   .     S
C119   H66     1.083   .     S
C120   H67     1.084   .     S
C120   C125    1.403   .     S
C120   C121    1.398   .     S
C121   H68     1.083   .     S
C121   C131    1.403   .     S
O10    B5      1.463   .     S
C122   C132    1.427   .     S
C123   C129    1.400   .     S
C123   H70     1.084   .     S
C124   H71     1.084   .     S
C125   B5      1.563   .     S
B5     O11     1.463   .     S
C126   C128    1.481   .     S
C127   B6      1.565   .     S
B6     O12     1.464   .     S
N12    H72     1.033   .     S
C130   C131    1.482   .     S
C133   C166    1.384   .     S
C133   O15     1.385   .     S
C133   C159    1.361   .     S
N13    C134    1.348   .     S
N13    C173    1.347   .     S
C134   C174    1.416   .     S
C134   C135    1.469   .     S
C135   C136    1.322   .     S
C135   H73     1.082   .     S
C136   C173    1.457   .     S
C136   H74     1.082   .     S
C137   H75     1.084   .     S
C137   C138    1.398   .     S
C137   C169    1.403   .     S
C138   C175    1.403   .     S
C138   H76     1.083   .     S
C139   C159    1.384   .     S
C141   C157    1.386   .     S
C141   C150    1.363   .     S
C141   O13     1.386   .     S
N14    C143    1.348   .     S
N14    C142    1.347   .     S
C142   C168    1.400   .     S
C142   C145    1.457   .     S
C143   C170    1.415   .     S
C143   C144    1.469   .     S
C144   C145    1.322   .     S
C144   H78     1.082   .     S
C145   H79     1.082   .     S
C146   H80     1.083   .     S
C146   C147    1.398   .     S
C146   C171    1.404   .     S
C147   C172    1.403   .     S
C147   H81     1.083   .     S
O13    B8      1.464   .     S
C148   C149    1.427   .     S
C148   H82     1.076   .     S
C148   C150    1.386   .     S
C149   C246    1.425   .     S
C149   C158    1.436   .     S
C150   O16     1.386   .     S
C151   C167    1.405   .     S
C151   C154    1.380   .     S
C151   N16     1.351   .     S
C152   N16     1.353   .     S
C152   C170    1.422   .     S
C152   C153    1.391   .     S
C153   C154    1.378   .     S
C153   H83     1.082   .     S
C154   H84     1.082   .     S
C155   C156    1.398   .     S
C155   H85     1.083   .     S
C155   C171    1.403   .     S
C156   H86     1.083   .     S
C156   C172    1.402   .     S
C157   C158    1.427   .     S
C157   H87     1.076   .     S
C158   C193    1.425   .     S
C159   O14     1.385   .     S
N15    H88     1.032   .     S
N15    C161    1.353   .     S
N15    C160    1.351   .     S
C160   C163    1.380   .     S
C160   C168    1.405   .     S
C161   C174    1.423   .     S
C161   C162    1.392   .     S
C162   H89     1.082   .     S
C162   C163    1.378   .     S
C163   H90     1.083   .     S
C164   H91     1.084   .     S
C164   C165    1.398   .     S
C164   C169    1.403   .     S
C165   H92     1.083   .     S
C165   C175    1.403   .     S
O14    B7      1.463   .     S
C166   H93     1.074   .     S
C166   C176    1.427   .     S
C167   C173    1.400   .     S
C167   H94     1.084   .     S
C168   H95     1.084   .     S
C169   B7      1.563   .     S
B7     O15     1.463   .     S
C170   C172    1.481   .     S
C171   B8      1.565   .     S
B8     O16     1.464   .     S
N16    H96     1.033   .     S
C174   C175    1.482   .     S
C176   C184    1.425   .     S
C177   C210    1.384   .     S
C177   O19     1.385   .     S
C177   C203    1.361   .     S
N17    C178    1.348   .     S
N17    C217    1.347   .     S
C178   C218    1.416   .     S
C178   C179    1.469   .     S
C179   H97     1.082   .     S
C179   C180    1.322   .     S
C180   C217    1.457   .     S
C180   H98     1.082   .     S
C181   C213    1.403   .     S
C181   C182    1.398   .     S
C181   H99     1.084   .     S
C182   H100    1.083   .     S
C182   C219    1.403   .     S
C183   C203    1.384   .     S
C185   C194    1.363   .     S
C185   O17     1.386   .     S
C185   C201    1.386   .     S
N18    C187    1.348   .     S
N18    C186    1.347   .     S
C186   C212    1.400   .     S
C186   C189    1.457   .     S
C187   C214    1.415   .     S
C187   C188    1.469   .     S
C188   C189    1.322   .     S
C188   H102    1.082   .     S
C189   H103    1.082   .     S
C190   C215    1.404   .     S
C190   C191    1.398   .     S
C190   H104    1.083   .     S
C191   H105    1.083   .     S
C191   C216    1.403   .     S
O17    B10     1.464   .     S
C192   C193    1.427   .     S
C192   C194    1.386   .     S
C192   H106    1.076   .     S
C193   C202    1.436   .     S
C194   O20     1.386   .     S
C195   C198    1.380   .     S
C195   C211    1.405   .     S
C195   N20     1.351   .     S
C196   N20     1.353   .     S
C196   C214    1.422   .     S
C196   C197    1.391   .     S
C197   C198    1.378   .     S
C197   H107    1.082   .     S
C198   H108    1.082   .     S
C199   C200    1.398   .     S
C199   H109    1.083   .     S
C199   C215    1.403   .     S
C200   H110    1.083   .     S
C200   C216    1.402   .     S
C201   H111    1.076   .     S
C201   C202    1.427   .     S
C202   C237    1.425   .     S
C203   O18     1.385   .     S
N19    H112    1.032   .     S
N19    C205    1.353   .     S
N19    C204    1.351   .     S
C204   C212    1.405   .     S
C204   C207    1.380   .     S
C205   C218    1.423   .     S
C205   C206    1.392   .     S
C206   H113    1.082   .     S
C206   C207    1.378   .     S
C207   H114    1.083   .     S
C208   H115    1.084   .     S
C208   C209    1.398   .     S
C208   C213    1.403   .     S
C209   H116    1.083   .     S
C209   C219    1.403   .     S
O18    B9      1.463   .     S
C210   C220    1.427   .     S
C211   C217    1.400   .     S
C211   H118    1.084   .     S
C212   H119    1.084   .     S
C213   B9      1.563   .     S
B9     O19     1.463   .     S
C214   C216    1.481   .     S
C215   B10     1.565   .     S
B10    O20     1.464   .     S
N20    H120    1.033   .     S
C218   C219    1.482   .     S
C221   C247    1.361   .     S
C221   C254    1.384   .     S
C221   O23     1.385   .     S
N21    C222    1.348   .     S
N21    C261    1.347   .     S
C222   C262    1.416   .     S
C222   C223    1.469   .     S
C223   C224    1.322   .     S
C223   H121    1.082   .     S
C224   C261    1.457   .     S
C224   H122    1.082   .     S
C225   C257    1.403   .     S
C225   H123    1.084   .     S
C225   C226    1.398   .     S
C226   C263    1.403   .     S
C226   H124    1.083   .     S
C227   H125    1.074   .     S
C227   C228    1.427   .     S
C227   C247    1.384   .     S
C228   C264    1.437   .     S
C229   C238    1.363   .     S
C229   O21     1.386   .     S
C229   C245    1.386   .     S
N22    C231    1.348   .     S
N22    C230    1.347   .     S
C230   C256    1.400   .     S
C230   C233    1.457   .     S
C231   C258    1.415   .     S
C231   C232    1.469   .     S
C232   C233    1.322   .     S
C232   H126    1.082   .     S
C233   H127    1.082   .     S
C234   C235    1.398   .     S
C234   C259    1.404   .     S
C234   H128    1.083   .     S
C235   C260    1.403   .     S
C235   H129    1.083   .     S
O21    B12     1.464   .     S
C236   C237    1.427   .     S
C236   H130    1.076   .     S
C236   C238    1.386   .     S
C237   C246    1.436   .     S
C238   O24     1.386   .     S
C239   C255    1.405   .     S
C239   C242    1.380   .     S
C239   N24     1.351   .     S
C240   N24     1.353   .     S
C240   C258    1.422   .     S
C240   C241    1.391   .     S
C241   C242    1.378   .     S
C241   H131    1.082   .     S
C242   H132    1.082   .     S
C243   C244    1.398   .     S
C243   H133    1.083   .     S
C243   C259    1.403   .     S
C244   H134    1.083   .     S
C244   C260    1.402   .     S
C245   H135    1.076   .     S
C245   C246    1.427   .     S
C247   O22     1.385   .     S
N23    H136    1.032   .     S
N23    C249    1.353   .     S
N23    C248    1.351   .     S
C248   C256    1.405   .     S
C248   C251    1.380   .     S
C249   C262    1.423   .     S
C249   C250    1.392   .     S
C250   C251    1.378   .     S
C250   H137    1.082   .     S
C251   H138    1.083   .     S
C252   C253    1.398   .     S
C252   H139    1.084   .     S
C252   C257    1.403   .     S
C253   H140    1.083   .     S
C253   C263    1.403   .     S
O22    B11     1.463   .     S
C254   C264    1.427   .     S
C255   C261    1.400   .     S
C255   H142    1.084   .     S
C256   H143    1.084   .     S
C257   B11     1.563   .     S
B11    O23     1.463   .     S
C258   C260    1.481   .     S
C259   B12     1.565   .     S
B12    O24     1.464   .     S
N24    H144    1.033   .     S
C262   C263    1.482   .     S
